
---------- Begin Simulation Statistics ----------
simSeconds                                   0.080941                       # Number of seconds simulated (Second)
simTicks                                  80940573750                       # Number of ticks simulated (Tick)
finalTick                                569178986250                       # Number of ticks from beginning of simulation (restored from checkpoints and never reset) (Tick)
simFreq                                  1000000000000                       # The number of ticks per simulated second ((Tick/Second))
hostSeconds                                   3174.33                       # Real time elapsed on the host (Second)
hostTickRate                                 25498488                       # The number of ticks simulated per host second (ticks/s) ((Tick/Second))
hostMemory                                    3067792                       # Number of bytes of host memory used (Byte)
simInsts                                    796805172                       # Number of instructions simulated (Count)
simOps                                      800161336                       # Number of ops (including micro ops) simulated (Count)
hostInstRate                                   251015                       # Simulator instruction rate (inst/s) ((Count/Second))
hostOpRate                                     252073                       # Simulator op (including micro ops) rate (op/s) ((Count/Second))
testsys.clk_domain.clock                         1000                       # Clock period in ticks (Tick)
testsys.cpu_cluster.clk_domain.clock              250                       # Clock period in ticks (Tick)
testsys.cpu_cluster.cpus0.numCycles           1215777                       # Number of cpu cycles simulated (Cycle)
testsys.cpu_cluster.cpus0.numWorkItemsStarted            0                       # Number of work items this cpu started (Count)
testsys.cpu_cluster.cpus0.numWorkItemsCompleted            0                       # Number of work items this cpu completed (Count)
testsys.cpu_cluster.cpus0.instsAdded           581442                       # Number of instructions added to the IQ (excludes non-spec) (Count)
testsys.cpu_cluster.cpus0.nonSpecInstsAdded        10331                       # Number of non-speculative instructions added to the IQ (Count)
testsys.cpu_cluster.cpus0.instsIssued          563968                       # Number of instructions issued (Count)
testsys.cpu_cluster.cpus0.squashedInstsIssued         1869                       # Number of squashed instructions issued (Count)
testsys.cpu_cluster.cpus0.squashedInstsExamined        77255                       # Number of squashed instructions iterated over during squash; mainly for profiling (Count)
testsys.cpu_cluster.cpus0.squashedOperandsExamined        56385                       # Number of squashed operands that are examined and possibly removed from graph (Count)
testsys.cpu_cluster.cpus0.squashedNonSpecRemoved         1190                       # Number of squashed non-spec instructions that were removed (Count)
testsys.cpu_cluster.cpus0.numIssuedDist::samples       790665                       # Number of insts issued each cycle (Count)
testsys.cpu_cluster.cpus0.numIssuedDist::mean     0.713283                       # Number of insts issued each cycle (Count)
testsys.cpu_cluster.cpus0.numIssuedDist::stdev     1.511603                       # Number of insts issued each cycle (Count)
testsys.cpu_cluster.cpus0.numIssuedDist::underflows            0      0.00%      0.00% # Number of insts issued each cycle (Count)
testsys.cpu_cluster.cpus0.numIssuedDist::0       582015     73.61%     73.61% # Number of insts issued each cycle (Count)
testsys.cpu_cluster.cpus0.numIssuedDist::1        78428      9.92%     83.53% # Number of insts issued each cycle (Count)
testsys.cpu_cluster.cpus0.numIssuedDist::2        36949      4.67%     88.20% # Number of insts issued each cycle (Count)
testsys.cpu_cluster.cpus0.numIssuedDist::3        29051      3.67%     91.88% # Number of insts issued each cycle (Count)
testsys.cpu_cluster.cpus0.numIssuedDist::4        26325      3.33%     95.21% # Number of insts issued each cycle (Count)
testsys.cpu_cluster.cpus0.numIssuedDist::5        18956      2.40%     97.60% # Number of insts issued each cycle (Count)
testsys.cpu_cluster.cpus0.numIssuedDist::6        10335      1.31%     98.91% # Number of insts issued each cycle (Count)
testsys.cpu_cluster.cpus0.numIssuedDist::7         6449      0.82%     99.73% # Number of insts issued each cycle (Count)
testsys.cpu_cluster.cpus0.numIssuedDist::8         2157      0.27%    100.00% # Number of insts issued each cycle (Count)
testsys.cpu_cluster.cpus0.numIssuedDist::overflows            0      0.00%    100.00% # Number of insts issued each cycle (Count)
testsys.cpu_cluster.cpus0.numIssuedDist::min_value            0                       # Number of insts issued each cycle (Count)
testsys.cpu_cluster.cpus0.numIssuedDist::max_value            8                       # Number of insts issued each cycle (Count)
testsys.cpu_cluster.cpus0.numIssuedDist::total       790665                       # Number of insts issued each cycle (Count)
testsys.cpu_cluster.cpus0.statFuBusy::No_OpClass            0      0.00%      0.00% # attempts to use FU when none available (Count)
testsys.cpu_cluster.cpus0.statFuBusy::IntAlu         4102     32.34%     32.34% # attempts to use FU when none available (Count)
testsys.cpu_cluster.cpus0.statFuBusy::IntMult          337      2.66%     34.99% # attempts to use FU when none available (Count)
testsys.cpu_cluster.cpus0.statFuBusy::IntDiv          581      4.58%     39.57% # attempts to use FU when none available (Count)
testsys.cpu_cluster.cpus0.statFuBusy::FloatAdd            0      0.00%     39.57% # attempts to use FU when none available (Count)
testsys.cpu_cluster.cpus0.statFuBusy::FloatCmp            0      0.00%     39.57% # attempts to use FU when none available (Count)
testsys.cpu_cluster.cpus0.statFuBusy::FloatCvt            0      0.00%     39.57% # attempts to use FU when none available (Count)
testsys.cpu_cluster.cpus0.statFuBusy::FloatMult            0      0.00%     39.57% # attempts to use FU when none available (Count)
testsys.cpu_cluster.cpus0.statFuBusy::FloatMultAcc            0      0.00%     39.57% # attempts to use FU when none available (Count)
testsys.cpu_cluster.cpus0.statFuBusy::FloatDiv            0      0.00%     39.57% # attempts to use FU when none available (Count)
testsys.cpu_cluster.cpus0.statFuBusy::FloatMisc            0      0.00%     39.57% # attempts to use FU when none available (Count)
testsys.cpu_cluster.cpus0.statFuBusy::FloatSqrt            0      0.00%     39.57% # attempts to use FU when none available (Count)
testsys.cpu_cluster.cpus0.statFuBusy::SimdAdd            0      0.00%     39.57% # attempts to use FU when none available (Count)
testsys.cpu_cluster.cpus0.statFuBusy::SimdAddAcc            0      0.00%     39.57% # attempts to use FU when none available (Count)
testsys.cpu_cluster.cpus0.statFuBusy::SimdAlu            0      0.00%     39.57% # attempts to use FU when none available (Count)
testsys.cpu_cluster.cpus0.statFuBusy::SimdCmp            0      0.00%     39.57% # attempts to use FU when none available (Count)
testsys.cpu_cluster.cpus0.statFuBusy::SimdCvt            0      0.00%     39.57% # attempts to use FU when none available (Count)
testsys.cpu_cluster.cpus0.statFuBusy::SimdMisc            0      0.00%     39.57% # attempts to use FU when none available (Count)
testsys.cpu_cluster.cpus0.statFuBusy::SimdMult            0      0.00%     39.57% # attempts to use FU when none available (Count)
testsys.cpu_cluster.cpus0.statFuBusy::SimdMultAcc            0      0.00%     39.57% # attempts to use FU when none available (Count)
testsys.cpu_cluster.cpus0.statFuBusy::SimdShift            0      0.00%     39.57% # attempts to use FU when none available (Count)
testsys.cpu_cluster.cpus0.statFuBusy::SimdShiftAcc            0      0.00%     39.57% # attempts to use FU when none available (Count)
testsys.cpu_cluster.cpus0.statFuBusy::SimdDiv            0      0.00%     39.57% # attempts to use FU when none available (Count)
testsys.cpu_cluster.cpus0.statFuBusy::SimdSqrt            0      0.00%     39.57% # attempts to use FU when none available (Count)
testsys.cpu_cluster.cpus0.statFuBusy::SimdFloatAdd            0      0.00%     39.57% # attempts to use FU when none available (Count)
testsys.cpu_cluster.cpus0.statFuBusy::SimdFloatAlu            0      0.00%     39.57% # attempts to use FU when none available (Count)
testsys.cpu_cluster.cpus0.statFuBusy::SimdFloatCmp            0      0.00%     39.57% # attempts to use FU when none available (Count)
testsys.cpu_cluster.cpus0.statFuBusy::SimdFloatCvt            0      0.00%     39.57% # attempts to use FU when none available (Count)
testsys.cpu_cluster.cpus0.statFuBusy::SimdFloatDiv            0      0.00%     39.57% # attempts to use FU when none available (Count)
testsys.cpu_cluster.cpus0.statFuBusy::SimdFloatMisc            0      0.00%     39.57% # attempts to use FU when none available (Count)
testsys.cpu_cluster.cpus0.statFuBusy::SimdFloatMult            0      0.00%     39.57% # attempts to use FU when none available (Count)
testsys.cpu_cluster.cpus0.statFuBusy::SimdFloatMultAcc            0      0.00%     39.57% # attempts to use FU when none available (Count)
testsys.cpu_cluster.cpus0.statFuBusy::SimdFloatSqrt            0      0.00%     39.57% # attempts to use FU when none available (Count)
testsys.cpu_cluster.cpus0.statFuBusy::SimdReduceAdd            0      0.00%     39.57% # attempts to use FU when none available (Count)
testsys.cpu_cluster.cpus0.statFuBusy::SimdReduceAlu            0      0.00%     39.57% # attempts to use FU when none available (Count)
testsys.cpu_cluster.cpus0.statFuBusy::SimdReduceCmp            0      0.00%     39.57% # attempts to use FU when none available (Count)
testsys.cpu_cluster.cpus0.statFuBusy::SimdFloatReduceAdd            0      0.00%     39.57% # attempts to use FU when none available (Count)
testsys.cpu_cluster.cpus0.statFuBusy::SimdFloatReduceCmp            0      0.00%     39.57% # attempts to use FU when none available (Count)
testsys.cpu_cluster.cpus0.statFuBusy::SimdAes            0      0.00%     39.57% # attempts to use FU when none available (Count)
testsys.cpu_cluster.cpus0.statFuBusy::SimdAesMix            0      0.00%     39.57% # attempts to use FU when none available (Count)
testsys.cpu_cluster.cpus0.statFuBusy::SimdSha1Hash            0      0.00%     39.57% # attempts to use FU when none available (Count)
testsys.cpu_cluster.cpus0.statFuBusy::SimdSha1Hash2            0      0.00%     39.57% # attempts to use FU when none available (Count)
testsys.cpu_cluster.cpus0.statFuBusy::SimdSha256Hash            0      0.00%     39.57% # attempts to use FU when none available (Count)
testsys.cpu_cluster.cpus0.statFuBusy::SimdSha256Hash2            0      0.00%     39.57% # attempts to use FU when none available (Count)
testsys.cpu_cluster.cpus0.statFuBusy::SimdShaSigma2            0      0.00%     39.57% # attempts to use FU when none available (Count)
testsys.cpu_cluster.cpus0.statFuBusy::SimdShaSigma3            0      0.00%     39.57% # attempts to use FU when none available (Count)
testsys.cpu_cluster.cpus0.statFuBusy::SimdPredAlu            0      0.00%     39.57% # attempts to use FU when none available (Count)
testsys.cpu_cluster.cpus0.statFuBusy::MemRead         4319     34.05%     73.62% # attempts to use FU when none available (Count)
testsys.cpu_cluster.cpus0.statFuBusy::MemWrite         3346     26.38%    100.00% # attempts to use FU when none available (Count)
testsys.cpu_cluster.cpus0.statFuBusy::FloatMemRead            0      0.00%    100.00% # attempts to use FU when none available (Count)
testsys.cpu_cluster.cpus0.statFuBusy::FloatMemWrite            0      0.00%    100.00% # attempts to use FU when none available (Count)
testsys.cpu_cluster.cpus0.statFuBusy::IprAccess            0      0.00%    100.00% # attempts to use FU when none available (Count)
testsys.cpu_cluster.cpus0.statFuBusy::InstPrefetch            0      0.00%    100.00% # attempts to use FU when none available (Count)
testsys.cpu_cluster.cpus0.statIssuedInstType_0::No_OpClass          110      0.02%      0.02% # Number of instructions issued per FU type, per thread (Count)
testsys.cpu_cluster.cpus0.statIssuedInstType_0::IntAlu       408676     72.46%     72.48% # Number of instructions issued per FU type, per thread (Count)
testsys.cpu_cluster.cpus0.statIssuedInstType_0::IntMult         1326      0.24%     72.72% # Number of instructions issued per FU type, per thread (Count)
testsys.cpu_cluster.cpus0.statIssuedInstType_0::IntDiv          266      0.05%     72.77% # Number of instructions issued per FU type, per thread (Count)
testsys.cpu_cluster.cpus0.statIssuedInstType_0::FloatAdd            0      0.00%     72.77% # Number of instructions issued per FU type, per thread (Count)
testsys.cpu_cluster.cpus0.statIssuedInstType_0::FloatCmp            0      0.00%     72.77% # Number of instructions issued per FU type, per thread (Count)
testsys.cpu_cluster.cpus0.statIssuedInstType_0::FloatCvt            0      0.00%     72.77% # Number of instructions issued per FU type, per thread (Count)
testsys.cpu_cluster.cpus0.statIssuedInstType_0::FloatMult            0      0.00%     72.77% # Number of instructions issued per FU type, per thread (Count)
testsys.cpu_cluster.cpus0.statIssuedInstType_0::FloatMultAcc            0      0.00%     72.77% # Number of instructions issued per FU type, per thread (Count)
testsys.cpu_cluster.cpus0.statIssuedInstType_0::FloatDiv            0      0.00%     72.77% # Number of instructions issued per FU type, per thread (Count)
testsys.cpu_cluster.cpus0.statIssuedInstType_0::FloatMisc            0      0.00%     72.77% # Number of instructions issued per FU type, per thread (Count)
testsys.cpu_cluster.cpus0.statIssuedInstType_0::FloatSqrt            0      0.00%     72.77% # Number of instructions issued per FU type, per thread (Count)
testsys.cpu_cluster.cpus0.statIssuedInstType_0::SimdAdd            0      0.00%     72.77% # Number of instructions issued per FU type, per thread (Count)
testsys.cpu_cluster.cpus0.statIssuedInstType_0::SimdAddAcc            0      0.00%     72.77% # Number of instructions issued per FU type, per thread (Count)
testsys.cpu_cluster.cpus0.statIssuedInstType_0::SimdAlu            0      0.00%     72.77% # Number of instructions issued per FU type, per thread (Count)
testsys.cpu_cluster.cpus0.statIssuedInstType_0::SimdCmp            0      0.00%     72.77% # Number of instructions issued per FU type, per thread (Count)
testsys.cpu_cluster.cpus0.statIssuedInstType_0::SimdCvt            0      0.00%     72.77% # Number of instructions issued per FU type, per thread (Count)
testsys.cpu_cluster.cpus0.statIssuedInstType_0::SimdMisc            0      0.00%     72.77% # Number of instructions issued per FU type, per thread (Count)
testsys.cpu_cluster.cpus0.statIssuedInstType_0::SimdMult            0      0.00%     72.77% # Number of instructions issued per FU type, per thread (Count)
testsys.cpu_cluster.cpus0.statIssuedInstType_0::SimdMultAcc            0      0.00%     72.77% # Number of instructions issued per FU type, per thread (Count)
testsys.cpu_cluster.cpus0.statIssuedInstType_0::SimdShift            0      0.00%     72.77% # Number of instructions issued per FU type, per thread (Count)
testsys.cpu_cluster.cpus0.statIssuedInstType_0::SimdShiftAcc            0      0.00%     72.77% # Number of instructions issued per FU type, per thread (Count)
testsys.cpu_cluster.cpus0.statIssuedInstType_0::SimdDiv            0      0.00%     72.77% # Number of instructions issued per FU type, per thread (Count)
testsys.cpu_cluster.cpus0.statIssuedInstType_0::SimdSqrt            0      0.00%     72.77% # Number of instructions issued per FU type, per thread (Count)
testsys.cpu_cluster.cpus0.statIssuedInstType_0::SimdFloatAdd            0      0.00%     72.77% # Number of instructions issued per FU type, per thread (Count)
testsys.cpu_cluster.cpus0.statIssuedInstType_0::SimdFloatAlu            0      0.00%     72.77% # Number of instructions issued per FU type, per thread (Count)
testsys.cpu_cluster.cpus0.statIssuedInstType_0::SimdFloatCmp            0      0.00%     72.77% # Number of instructions issued per FU type, per thread (Count)
testsys.cpu_cluster.cpus0.statIssuedInstType_0::SimdFloatCvt            0      0.00%     72.77% # Number of instructions issued per FU type, per thread (Count)
testsys.cpu_cluster.cpus0.statIssuedInstType_0::SimdFloatDiv            0      0.00%     72.77% # Number of instructions issued per FU type, per thread (Count)
testsys.cpu_cluster.cpus0.statIssuedInstType_0::SimdFloatMisc            0      0.00%     72.77% # Number of instructions issued per FU type, per thread (Count)
testsys.cpu_cluster.cpus0.statIssuedInstType_0::SimdFloatMult            0      0.00%     72.77% # Number of instructions issued per FU type, per thread (Count)
testsys.cpu_cluster.cpus0.statIssuedInstType_0::SimdFloatMultAcc            0      0.00%     72.77% # Number of instructions issued per FU type, per thread (Count)
testsys.cpu_cluster.cpus0.statIssuedInstType_0::SimdFloatSqrt            0      0.00%     72.77% # Number of instructions issued per FU type, per thread (Count)
testsys.cpu_cluster.cpus0.statIssuedInstType_0::SimdReduceAdd            0      0.00%     72.77% # Number of instructions issued per FU type, per thread (Count)
testsys.cpu_cluster.cpus0.statIssuedInstType_0::SimdReduceAlu            0      0.00%     72.77% # Number of instructions issued per FU type, per thread (Count)
testsys.cpu_cluster.cpus0.statIssuedInstType_0::SimdReduceCmp            0      0.00%     72.77% # Number of instructions issued per FU type, per thread (Count)
testsys.cpu_cluster.cpus0.statIssuedInstType_0::SimdFloatReduceAdd            0      0.00%     72.77% # Number of instructions issued per FU type, per thread (Count)
testsys.cpu_cluster.cpus0.statIssuedInstType_0::SimdFloatReduceCmp            0      0.00%     72.77% # Number of instructions issued per FU type, per thread (Count)
testsys.cpu_cluster.cpus0.statIssuedInstType_0::SimdAes            0      0.00%     72.77% # Number of instructions issued per FU type, per thread (Count)
testsys.cpu_cluster.cpus0.statIssuedInstType_0::SimdAesMix            0      0.00%     72.77% # Number of instructions issued per FU type, per thread (Count)
testsys.cpu_cluster.cpus0.statIssuedInstType_0::SimdSha1Hash            0      0.00%     72.77% # Number of instructions issued per FU type, per thread (Count)
testsys.cpu_cluster.cpus0.statIssuedInstType_0::SimdSha1Hash2            0      0.00%     72.77% # Number of instructions issued per FU type, per thread (Count)
testsys.cpu_cluster.cpus0.statIssuedInstType_0::SimdSha256Hash            0      0.00%     72.77% # Number of instructions issued per FU type, per thread (Count)
testsys.cpu_cluster.cpus0.statIssuedInstType_0::SimdSha256Hash2            0      0.00%     72.77% # Number of instructions issued per FU type, per thread (Count)
testsys.cpu_cluster.cpus0.statIssuedInstType_0::SimdShaSigma2            0      0.00%     72.77% # Number of instructions issued per FU type, per thread (Count)
testsys.cpu_cluster.cpus0.statIssuedInstType_0::SimdShaSigma3            0      0.00%     72.77% # Number of instructions issued per FU type, per thread (Count)
testsys.cpu_cluster.cpus0.statIssuedInstType_0::SimdPredAlu            0      0.00%     72.77% # Number of instructions issued per FU type, per thread (Count)
testsys.cpu_cluster.cpus0.statIssuedInstType_0::MemRead        85848     15.22%     87.99% # Number of instructions issued per FU type, per thread (Count)
testsys.cpu_cluster.cpus0.statIssuedInstType_0::MemWrite        67742     12.01%    100.00% # Number of instructions issued per FU type, per thread (Count)
testsys.cpu_cluster.cpus0.statIssuedInstType_0::FloatMemRead            0      0.00%    100.00% # Number of instructions issued per FU type, per thread (Count)
testsys.cpu_cluster.cpus0.statIssuedInstType_0::FloatMemWrite            0      0.00%    100.00% # Number of instructions issued per FU type, per thread (Count)
testsys.cpu_cluster.cpus0.statIssuedInstType_0::IprAccess            0      0.00%    100.00% # Number of instructions issued per FU type, per thread (Count)
testsys.cpu_cluster.cpus0.statIssuedInstType_0::InstPrefetch            0      0.00%    100.00% # Number of instructions issued per FU type, per thread (Count)
testsys.cpu_cluster.cpus0.statIssuedInstType_0::total       563968                       # Number of instructions issued per FU type, per thread (Count)
testsys.cpu_cluster.cpus0.issueRate          0.463875                       # Inst issue rate ((Count/Cycle))
testsys.cpu_cluster.cpus0.fuBusy                12685                       # FU busy when requested (Count)
testsys.cpu_cluster.cpus0.fuBusyRate         0.022492                       # FU busy rate (busy events/executed inst) ((Count/Count))
testsys.cpu_cluster.cpus0.intInstQueueReads      1933155                       # Number of integer instruction queue reads (Count)
testsys.cpu_cluster.cpus0.intInstQueueWrites       669530                       # Number of integer instruction queue writes (Count)
testsys.cpu_cluster.cpus0.intInstQueueWakeupAccesses       555290                       # Number of integer instruction queue wakeup accesses (Count)
testsys.cpu_cluster.cpus0.fpInstQueueReads            0                       # Number of floating instruction queue reads (Count)
testsys.cpu_cluster.cpus0.fpInstQueueWrites            0                       # Number of floating instruction queue writes (Count)
testsys.cpu_cluster.cpus0.fpInstQueueWakeupAccesses            0                       # Number of floating instruction queue wakeup accesses (Count)
testsys.cpu_cluster.cpus0.vecInstQueueReads            0                       # Number of vector instruction queue reads (Count)
testsys.cpu_cluster.cpus0.vecInstQueueWrites            0                       # Number of vector instruction queue writes (Count)
testsys.cpu_cluster.cpus0.vecInstQueueWakeupAccesses            0                       # Number of vector instruction queue wakeup accesses (Count)
testsys.cpu_cluster.cpus0.intAluAccesses       576543                       # Number of integer alu accesses (Count)
testsys.cpu_cluster.cpus0.fpAluAccesses             0                       # Number of floating point alu accesses (Count)
testsys.cpu_cluster.cpus0.vecAluAccesses            0                       # Number of vector alu accesses (Count)
testsys.cpu_cluster.cpus0.idleCycles                0                       # Number of cycles IEW is idle (Cycle)
testsys.cpu_cluster.cpus0.squashCycles           3118                       # Number of cycles IEW is squashing (Cycle)
testsys.cpu_cluster.cpus0.blockCycles           47277                       # Number of cycles IEW is blocking (Cycle)
testsys.cpu_cluster.cpus0.unblockCycles          1956                       # Number of cycles IEW is unblocking (Cycle)
testsys.cpu_cluster.cpus0.dispatchedInsts       599703                       # Number of instructions dispatched to IQ (Count)
testsys.cpu_cluster.cpus0.dispSquashedInsts         1693                       # Number of squashed instructions skipped by dispatch (Count)
testsys.cpu_cluster.cpus0.dispLoadInsts         89533                       # Number of dispatched load instructions (Count)
testsys.cpu_cluster.cpus0.dispStoreInsts        71196                       # Number of dispatched store instructions (Count)
testsys.cpu_cluster.cpus0.dispNonSpecInsts         6237                       # Number of dispatched non-speculative instructions (Count)
testsys.cpu_cluster.cpus0.iqFullEvents            322                       # Number of times the IQ has become full, causing a stall (Count)
testsys.cpu_cluster.cpus0.lsqFullEvents          1478                       # Number of times the LSQ has become full, causing a stall (Count)
testsys.cpu_cluster.cpus0.memOrderViolationEvents          527                       # Number of memory order violations (Count)
testsys.cpu_cluster.cpus0.predictedTakenIncorrect          646                       # Number of branches that were predicted taken incorrectly (Count)
testsys.cpu_cluster.cpus0.predictedNotTakenIncorrect         1791                       # Number of branches that were predicted not taken incorrectly (Count)
testsys.cpu_cluster.cpus0.branchMispredicts         2437                       # Number of branch mispredicts detected at execute (Count)
testsys.cpu_cluster.cpus0.numInsts             559369                       # Number of executed instructions (Count)
testsys.cpu_cluster.cpus0.numLoadInsts          83667                       # Number of load instructions executed (Count)
testsys.cpu_cluster.cpus0.numSquashedInsts         3066                       # Number of squashed instructions skipped in execute (Count)
testsys.cpu_cluster.cpus0.numSwp                    0                       # Number of swp insts executed (Count)
testsys.cpu_cluster.cpus0.numNop                 7930                       # Number of nop insts executed (Count)
testsys.cpu_cluster.cpus0.numRefs              150606                       # Number of memory reference insts executed (Count)
testsys.cpu_cluster.cpus0.numBranches          104042                       # Number of branches executed (Count)
testsys.cpu_cluster.cpus0.numStoreInsts         66939                       # Number of stores executed (Count)
testsys.cpu_cluster.cpus0.numRate            0.460092                       # Inst execution rate ((Count/Cycle))
testsys.cpu_cluster.cpus0.instsToCommit        556135                       # Cumulative count of insts sent to commit (Count)
testsys.cpu_cluster.cpus0.writebackCount       555290                       # Cumulative count of insts written-back (Count)
testsys.cpu_cluster.cpus0.producerInst         303596                       # Number of instructions producing a value (Count)
testsys.cpu_cluster.cpus0.consumerInst         486710                       # Number of instructions consuming a value (Count)
testsys.cpu_cluster.cpus0.wbRate             0.456737                       # Insts written-back per cycle ((Count/Cycle))
testsys.cpu_cluster.cpus0.wbFanout           0.623772                       # Average fanout of values written-back ((Count/Count))
testsys.cpu_cluster.cpus0.timesIdled             2449                       # Number of times that the entire CPU went into an idle state and unscheduled itself (Count)
testsys.cpu_cluster.cpus0.idleCycles           425112                       # Total number of cycles that the CPU has spent unscheduled due to idling (Cycle)
testsys.cpu_cluster.cpus0.quiesceCycles     322348839                       # Total number of cycles that CPU has spent quiesced or waiting for an interrupt (Cycle)
testsys.cpu_cluster.cpus0.committedInsts       443963                       # Number of Instructions Simulated (Count)
testsys.cpu_cluster.cpus0.committedOps         514518                       # Number of Ops (including micro ops) Simulated (Count)
testsys.cpu_cluster.cpus0.cpi                2.738465                       # CPI: Cycles Per Instruction ((Cycle/Count))
testsys.cpu_cluster.cpus0.totalCpi           2.738465                       # CPI: Total CPI of All Threads ((Cycle/Count))
testsys.cpu_cluster.cpus0.ipc                0.365168                       # IPC: Instructions Per Cycle ((Count/Cycle))
testsys.cpu_cluster.cpus0.totalIpc           0.365168                       # IPC: Total IPC of All Threads ((Count/Cycle))
testsys.cpu_cluster.cpus0.intRegfileReads       637844                       # Number of integer regfile reads (Count)
testsys.cpu_cluster.cpus0.intRegfileWrites       420997                       # Number of integer regfile writes (Count)
testsys.cpu_cluster.cpus0.ccRegfileReads       108669                       # number of cc regfile reads (Count)
testsys.cpu_cluster.cpus0.ccRegfileWrites       106803                       # number of cc regfile writes (Count)
testsys.cpu_cluster.cpus0.miscRegfileReads      4083356                       # number of misc regfile reads (Count)
testsys.cpu_cluster.cpus0.miscRegfileWrites         7357                       # number of misc regfile writes (Count)
testsys.cpu_cluster.cpus0.MemDepUnit__0.insertedLoads        89533                       # Number of loads inserted to the mem dependence unit. (Count)
testsys.cpu_cluster.cpus0.MemDepUnit__0.insertedStores        71196                       # Number of stores inserted to the mem dependence unit. (Count)
testsys.cpu_cluster.cpus0.MemDepUnit__0.conflictingLoads        26198                       # Number of conflicting loads. (Count)
testsys.cpu_cluster.cpus0.MemDepUnit__0.conflictingStores        19397                       # Number of conflicting stores. (Count)
testsys.cpu_cluster.cpus0.MemDepUnit__1.insertedLoads            0                       # Number of loads inserted to the mem dependence unit. (Count)
testsys.cpu_cluster.cpus0.MemDepUnit__1.insertedStores            0                       # Number of stores inserted to the mem dependence unit. (Count)
testsys.cpu_cluster.cpus0.MemDepUnit__1.conflictingLoads            0                       # Number of conflicting loads. (Count)
testsys.cpu_cluster.cpus0.MemDepUnit__1.conflictingStores            0                       # Number of conflicting stores. (Count)
testsys.cpu_cluster.cpus0.MemDepUnit__2.insertedLoads            0                       # Number of loads inserted to the mem dependence unit. (Count)
testsys.cpu_cluster.cpus0.MemDepUnit__2.insertedStores            0                       # Number of stores inserted to the mem dependence unit. (Count)
testsys.cpu_cluster.cpus0.MemDepUnit__2.conflictingLoads            0                       # Number of conflicting loads. (Count)
testsys.cpu_cluster.cpus0.MemDepUnit__2.conflictingStores            0                       # Number of conflicting stores. (Count)
testsys.cpu_cluster.cpus0.MemDepUnit__3.insertedLoads            0                       # Number of loads inserted to the mem dependence unit. (Count)
testsys.cpu_cluster.cpus0.MemDepUnit__3.insertedStores            0                       # Number of stores inserted to the mem dependence unit. (Count)
testsys.cpu_cluster.cpus0.MemDepUnit__3.conflictingLoads            0                       # Number of conflicting loads. (Count)
testsys.cpu_cluster.cpus0.MemDepUnit__3.conflictingStores            0                       # Number of conflicting stores. (Count)
testsys.cpu_cluster.cpus0.branchPred.lookups       128371                       # Number of BP lookups (Count)
testsys.cpu_cluster.cpus0.branchPred.condPredicted        69952                       # Number of conditional branches predicted (Count)
testsys.cpu_cluster.cpus0.branchPred.condIncorrect         2936                       # Number of conditional branches incorrect (Count)
testsys.cpu_cluster.cpus0.branchPred.BTBLookups        53956                       # Number of BTB lookups (Count)
testsys.cpu_cluster.cpus0.branchPred.BTBHits        51035                       # Number of BTB hits (Count)
testsys.cpu_cluster.cpus0.branchPred.BTBHitRatio     0.945863                       # BTB Hit Ratio (Ratio)
testsys.cpu_cluster.cpus0.branchPred.RASUsed        26188                       # Number of times the RAS was used to get a target. (Count)
testsys.cpu_cluster.cpus0.branchPred.RASIncorrect           87                       # Number of incorrect RAS predictions. (Count)
testsys.cpu_cluster.cpus0.branchPred.indirectLookups         1348                       # Number of indirect predictor lookups. (Count)
testsys.cpu_cluster.cpus0.branchPred.indirectHits          853                       # Number of indirect target hits. (Count)
testsys.cpu_cluster.cpus0.branchPred.indirectMisses          495                       # Number of indirect misses. (Count)
testsys.cpu_cluster.cpus0.branchPred.indirectMispredicted          191                       # Number of mispredicted indirect branches. (Count)
testsys.cpu_cluster.cpus0.commit.commitSquashedInsts        78299                       # The number of squashed insts skipped by commit (Count)
testsys.cpu_cluster.cpus0.commit.commitNonSpecStalls         9141                       # The number of times commit has been forced to stall to communicate backwards (Count)
testsys.cpu_cluster.cpus0.commit.branchMispredicts         2179                       # The number of times a branch was mispredicted (Count)
testsys.cpu_cluster.cpus0.commit.numCommittedDist::samples       777739                       # Number of insts commited each cycle (Count)
testsys.cpu_cluster.cpus0.commit.numCommittedDist::mean     0.669978                       # Number of insts commited each cycle (Count)
testsys.cpu_cluster.cpus0.commit.numCommittedDist::stdev     1.732920                       # Number of insts commited each cycle (Count)
testsys.cpu_cluster.cpus0.commit.numCommittedDist::underflows            0      0.00%      0.00% # Number of insts commited each cycle (Count)
testsys.cpu_cluster.cpus0.commit.numCommittedDist::0       601888     77.39%     77.39% # Number of insts commited each cycle (Count)
testsys.cpu_cluster.cpus0.commit.numCommittedDist::1        81549     10.49%     87.87% # Number of insts commited each cycle (Count)
testsys.cpu_cluster.cpus0.commit.numCommittedDist::2        28084      3.61%     91.49% # Number of insts commited each cycle (Count)
testsys.cpu_cluster.cpus0.commit.numCommittedDist::3        13091      1.68%     93.17% # Number of insts commited each cycle (Count)
testsys.cpu_cluster.cpus0.commit.numCommittedDist::4        12371      1.59%     94.76% # Number of insts commited each cycle (Count)
testsys.cpu_cluster.cpus0.commit.numCommittedDist::5         4080      0.52%     95.28% # Number of insts commited each cycle (Count)
testsys.cpu_cluster.cpus0.commit.numCommittedDist::6         6983      0.90%     96.18% # Number of insts commited each cycle (Count)
testsys.cpu_cluster.cpus0.commit.numCommittedDist::7         5248      0.67%     96.86% # Number of insts commited each cycle (Count)
testsys.cpu_cluster.cpus0.commit.numCommittedDist::8        24445      3.14%    100.00% # Number of insts commited each cycle (Count)
testsys.cpu_cluster.cpus0.commit.numCommittedDist::overflows            0      0.00%    100.00% # Number of insts commited each cycle (Count)
testsys.cpu_cluster.cpus0.commit.numCommittedDist::min_value            0                       # Number of insts commited each cycle (Count)
testsys.cpu_cluster.cpus0.commit.numCommittedDist::max_value            8                       # Number of insts commited each cycle (Count)
testsys.cpu_cluster.cpus0.commit.numCommittedDist::total       777739                       # Number of insts commited each cycle (Count)
testsys.cpu_cluster.cpus0.commit.instsCommitted       450513                       # Number of instructions committed (Count)
testsys.cpu_cluster.cpus0.commit.opsCommitted       521068                       # Number of ops (including micro ops) committed (Count)
testsys.cpu_cluster.cpus0.commit.memRefs       139494                       # Number of memory references committed (Count)
testsys.cpu_cluster.cpus0.commit.loads          75297                       # Number of loads committed (Count)
testsys.cpu_cluster.cpus0.commit.amos            2162                       # Number of atomic instructions committed (Count)
testsys.cpu_cluster.cpus0.commit.membars         6148                       # Number of memory barriers committed (Count)
testsys.cpu_cluster.cpus0.commit.branches        95739                       # Number of branches committed (Count)
testsys.cpu_cluster.cpus0.commit.vectorInstructions            0                       # Number of committed Vector instructions. (Count)
testsys.cpu_cluster.cpus0.commit.floating            0                       # Number of committed floating point instructions. (Count)
testsys.cpu_cluster.cpus0.commit.integer       476254                       # Number of committed integer instructions. (Count)
testsys.cpu_cluster.cpus0.commit.functionCalls        19322                       # Number of function calls committed. (Count)
testsys.cpu_cluster.cpus0.commit.committedInstType_0::No_OpClass            0      0.00%      0.00% # Class of committed instruction (Count)
testsys.cpu_cluster.cpus0.commit.committedInstType_0::IntAlu       380113     72.95%     72.95% # Class of committed instruction (Count)
testsys.cpu_cluster.cpus0.commit.committedInstType_0::IntMult         1226      0.24%     73.18% # Class of committed instruction (Count)
testsys.cpu_cluster.cpus0.commit.committedInstType_0::IntDiv          235      0.05%     73.23% # Class of committed instruction (Count)
testsys.cpu_cluster.cpus0.commit.committedInstType_0::FloatAdd            0      0.00%     73.23% # Class of committed instruction (Count)
testsys.cpu_cluster.cpus0.commit.committedInstType_0::FloatCmp            0      0.00%     73.23% # Class of committed instruction (Count)
testsys.cpu_cluster.cpus0.commit.committedInstType_0::FloatCvt            0      0.00%     73.23% # Class of committed instruction (Count)
testsys.cpu_cluster.cpus0.commit.committedInstType_0::FloatMult            0      0.00%     73.23% # Class of committed instruction (Count)
testsys.cpu_cluster.cpus0.commit.committedInstType_0::FloatMultAcc            0      0.00%     73.23% # Class of committed instruction (Count)
testsys.cpu_cluster.cpus0.commit.committedInstType_0::FloatDiv            0      0.00%     73.23% # Class of committed instruction (Count)
testsys.cpu_cluster.cpus0.commit.committedInstType_0::FloatMisc            0      0.00%     73.23% # Class of committed instruction (Count)
testsys.cpu_cluster.cpus0.commit.committedInstType_0::FloatSqrt            0      0.00%     73.23% # Class of committed instruction (Count)
testsys.cpu_cluster.cpus0.commit.committedInstType_0::SimdAdd            0      0.00%     73.23% # Class of committed instruction (Count)
testsys.cpu_cluster.cpus0.commit.committedInstType_0::SimdAddAcc            0      0.00%     73.23% # Class of committed instruction (Count)
testsys.cpu_cluster.cpus0.commit.committedInstType_0::SimdAlu            0      0.00%     73.23% # Class of committed instruction (Count)
testsys.cpu_cluster.cpus0.commit.committedInstType_0::SimdCmp            0      0.00%     73.23% # Class of committed instruction (Count)
testsys.cpu_cluster.cpus0.commit.committedInstType_0::SimdCvt            0      0.00%     73.23% # Class of committed instruction (Count)
testsys.cpu_cluster.cpus0.commit.committedInstType_0::SimdMisc            0      0.00%     73.23% # Class of committed instruction (Count)
testsys.cpu_cluster.cpus0.commit.committedInstType_0::SimdMult            0      0.00%     73.23% # Class of committed instruction (Count)
testsys.cpu_cluster.cpus0.commit.committedInstType_0::SimdMultAcc            0      0.00%     73.23% # Class of committed instruction (Count)
testsys.cpu_cluster.cpus0.commit.committedInstType_0::SimdShift            0      0.00%     73.23% # Class of committed instruction (Count)
testsys.cpu_cluster.cpus0.commit.committedInstType_0::SimdShiftAcc            0      0.00%     73.23% # Class of committed instruction (Count)
testsys.cpu_cluster.cpus0.commit.committedInstType_0::SimdDiv            0      0.00%     73.23% # Class of committed instruction (Count)
testsys.cpu_cluster.cpus0.commit.committedInstType_0::SimdSqrt            0      0.00%     73.23% # Class of committed instruction (Count)
testsys.cpu_cluster.cpus0.commit.committedInstType_0::SimdFloatAdd            0      0.00%     73.23% # Class of committed instruction (Count)
testsys.cpu_cluster.cpus0.commit.committedInstType_0::SimdFloatAlu            0      0.00%     73.23% # Class of committed instruction (Count)
testsys.cpu_cluster.cpus0.commit.committedInstType_0::SimdFloatCmp            0      0.00%     73.23% # Class of committed instruction (Count)
testsys.cpu_cluster.cpus0.commit.committedInstType_0::SimdFloatCvt            0      0.00%     73.23% # Class of committed instruction (Count)
testsys.cpu_cluster.cpus0.commit.committedInstType_0::SimdFloatDiv            0      0.00%     73.23% # Class of committed instruction (Count)
testsys.cpu_cluster.cpus0.commit.committedInstType_0::SimdFloatMisc            0      0.00%     73.23% # Class of committed instruction (Count)
testsys.cpu_cluster.cpus0.commit.committedInstType_0::SimdFloatMult            0      0.00%     73.23% # Class of committed instruction (Count)
testsys.cpu_cluster.cpus0.commit.committedInstType_0::SimdFloatMultAcc            0      0.00%     73.23% # Class of committed instruction (Count)
testsys.cpu_cluster.cpus0.commit.committedInstType_0::SimdFloatSqrt            0      0.00%     73.23% # Class of committed instruction (Count)
testsys.cpu_cluster.cpus0.commit.committedInstType_0::SimdReduceAdd            0      0.00%     73.23% # Class of committed instruction (Count)
testsys.cpu_cluster.cpus0.commit.committedInstType_0::SimdReduceAlu            0      0.00%     73.23% # Class of committed instruction (Count)
testsys.cpu_cluster.cpus0.commit.committedInstType_0::SimdReduceCmp            0      0.00%     73.23% # Class of committed instruction (Count)
testsys.cpu_cluster.cpus0.commit.committedInstType_0::SimdFloatReduceAdd            0      0.00%     73.23% # Class of committed instruction (Count)
testsys.cpu_cluster.cpus0.commit.committedInstType_0::SimdFloatReduceCmp            0      0.00%     73.23% # Class of committed instruction (Count)
testsys.cpu_cluster.cpus0.commit.committedInstType_0::SimdAes            0      0.00%     73.23% # Class of committed instruction (Count)
testsys.cpu_cluster.cpus0.commit.committedInstType_0::SimdAesMix            0      0.00%     73.23% # Class of committed instruction (Count)
testsys.cpu_cluster.cpus0.commit.committedInstType_0::SimdSha1Hash            0      0.00%     73.23% # Class of committed instruction (Count)
testsys.cpu_cluster.cpus0.commit.committedInstType_0::SimdSha1Hash2            0      0.00%     73.23% # Class of committed instruction (Count)
testsys.cpu_cluster.cpus0.commit.committedInstType_0::SimdSha256Hash            0      0.00%     73.23% # Class of committed instruction (Count)
testsys.cpu_cluster.cpus0.commit.committedInstType_0::SimdSha256Hash2            0      0.00%     73.23% # Class of committed instruction (Count)
testsys.cpu_cluster.cpus0.commit.committedInstType_0::SimdShaSigma2            0      0.00%     73.23% # Class of committed instruction (Count)
testsys.cpu_cluster.cpus0.commit.committedInstType_0::SimdShaSigma3            0      0.00%     73.23% # Class of committed instruction (Count)
testsys.cpu_cluster.cpus0.commit.committedInstType_0::SimdPredAlu            0      0.00%     73.23% # Class of committed instruction (Count)
testsys.cpu_cluster.cpus0.commit.committedInstType_0::MemRead        75297     14.45%     87.68% # Class of committed instruction (Count)
testsys.cpu_cluster.cpus0.commit.committedInstType_0::MemWrite        64197     12.32%    100.00% # Class of committed instruction (Count)
testsys.cpu_cluster.cpus0.commit.committedInstType_0::FloatMemRead            0      0.00%    100.00% # Class of committed instruction (Count)
testsys.cpu_cluster.cpus0.commit.committedInstType_0::FloatMemWrite            0      0.00%    100.00% # Class of committed instruction (Count)
testsys.cpu_cluster.cpus0.commit.committedInstType_0::IprAccess            0      0.00%    100.00% # Class of committed instruction (Count)
testsys.cpu_cluster.cpus0.commit.committedInstType_0::InstPrefetch            0      0.00%    100.00% # Class of committed instruction (Count)
testsys.cpu_cluster.cpus0.commit.committedInstType_0::total       521068                       # Class of committed instruction (Count)
testsys.cpu_cluster.cpus0.commit.commitEligibleSamples        24445                       # number cycles where commit BW limit reached (Cycle)
testsys.cpu_cluster.cpus0.dcache.demandHits::cpu_cluster.cpus0.data       135991                       # number of demand (read+write) hits (Count)
testsys.cpu_cluster.cpus0.dcache.demandHits::total       135991                       # number of demand (read+write) hits (Count)
testsys.cpu_cluster.cpus0.dcache.overallHits::cpu_cluster.cpus0.data       135991                       # number of overall hits (Count)
testsys.cpu_cluster.cpus0.dcache.overallHits::total       135991                       # number of overall hits (Count)
testsys.cpu_cluster.cpus0.dcache.demandMisses::cpu_cluster.cpus0.data         3559                       # number of demand (read+write) misses (Count)
testsys.cpu_cluster.cpus0.dcache.demandMisses::total         3559                       # number of demand (read+write) misses (Count)
testsys.cpu_cluster.cpus0.dcache.overallMisses::cpu_cluster.cpus0.data         3559                       # number of overall misses (Count)
testsys.cpu_cluster.cpus0.dcache.overallMisses::total         3559                       # number of overall misses (Count)
testsys.cpu_cluster.cpus0.dcache.demandMissLatency::cpu_cluster.cpus0.data    108940500                       # number of demand (read+write) miss ticks (Tick)
testsys.cpu_cluster.cpus0.dcache.demandMissLatency::total    108940500                       # number of demand (read+write) miss ticks (Tick)
testsys.cpu_cluster.cpus0.dcache.overallMissLatency::cpu_cluster.cpus0.data    108940500                       # number of overall miss ticks (Tick)
testsys.cpu_cluster.cpus0.dcache.overallMissLatency::total    108940500                       # number of overall miss ticks (Tick)
testsys.cpu_cluster.cpus0.dcache.demandAccesses::cpu_cluster.cpus0.data       139550                       # number of demand (read+write) accesses (Count)
testsys.cpu_cluster.cpus0.dcache.demandAccesses::total       139550                       # number of demand (read+write) accesses (Count)
testsys.cpu_cluster.cpus0.dcache.overallAccesses::cpu_cluster.cpus0.data       139550                       # number of overall (read+write) accesses (Count)
testsys.cpu_cluster.cpus0.dcache.overallAccesses::total       139550                       # number of overall (read+write) accesses (Count)
testsys.cpu_cluster.cpus0.dcache.demandMissRate::cpu_cluster.cpus0.data     0.025503                       # miss rate for demand accesses (Ratio)
testsys.cpu_cluster.cpus0.dcache.demandMissRate::total     0.025503                       # miss rate for demand accesses (Ratio)
testsys.cpu_cluster.cpus0.dcache.overallMissRate::cpu_cluster.cpus0.data     0.025503                       # miss rate for overall accesses (Ratio)
testsys.cpu_cluster.cpus0.dcache.overallMissRate::total     0.025503                       # miss rate for overall accesses (Ratio)
testsys.cpu_cluster.cpus0.dcache.demandAvgMissLatency::cpu_cluster.cpus0.data 30609.862321                       # average overall miss latency ((Cycle/Count))
testsys.cpu_cluster.cpus0.dcache.demandAvgMissLatency::total 30609.862321                       # average overall miss latency ((Cycle/Count))
testsys.cpu_cluster.cpus0.dcache.overallAvgMissLatency::cpu_cluster.cpus0.data 30609.862321                       # average overall miss latency ((Cycle/Count))
testsys.cpu_cluster.cpus0.dcache.overallAvgMissLatency::total 30609.862321                       # average overall miss latency ((Cycle/Count))
testsys.cpu_cluster.cpus0.dcache.blockedCycles::no_mshrs            0                       # number of cycles access was blocked (Cycle)
testsys.cpu_cluster.cpus0.dcache.blockedCycles::no_targets            0                       # number of cycles access was blocked (Cycle)
testsys.cpu_cluster.cpus0.dcache.blockedCauses::no_mshrs            0                       # number of times access was blocked (Count)
testsys.cpu_cluster.cpus0.dcache.blockedCauses::no_targets            0                       # number of times access was blocked (Count)
testsys.cpu_cluster.cpus0.dcache.avgBlocked::no_mshrs          nan                       # average number of cycles each access was blocked ((Cycle/Count))
testsys.cpu_cluster.cpus0.dcache.avgBlocked::no_targets          nan                       # average number of cycles each access was blocked ((Cycle/Count))
testsys.cpu_cluster.cpus0.dcache.writebacks::writebacks          590                       # number of writebacks (Count)
testsys.cpu_cluster.cpus0.dcache.writebacks::total          590                       # number of writebacks (Count)
testsys.cpu_cluster.cpus0.dcache.demandMshrHits::cpu_cluster.cpus0.data         1445                       # number of demand (read+write) MSHR hits (Count)
testsys.cpu_cluster.cpus0.dcache.demandMshrHits::total         1445                       # number of demand (read+write) MSHR hits (Count)
testsys.cpu_cluster.cpus0.dcache.overallMshrHits::cpu_cluster.cpus0.data         1445                       # number of overall MSHR hits (Count)
testsys.cpu_cluster.cpus0.dcache.overallMshrHits::total         1445                       # number of overall MSHR hits (Count)
testsys.cpu_cluster.cpus0.dcache.demandMshrMisses::cpu_cluster.cpus0.data         2114                       # number of demand (read+write) MSHR misses (Count)
testsys.cpu_cluster.cpus0.dcache.demandMshrMisses::total         2114                       # number of demand (read+write) MSHR misses (Count)
testsys.cpu_cluster.cpus0.dcache.overallMshrMisses::cpu_cluster.cpus0.data         2114                       # number of overall MSHR misses (Count)
testsys.cpu_cluster.cpus0.dcache.overallMshrMisses::total         2114                       # number of overall MSHR misses (Count)
testsys.cpu_cluster.cpus0.dcache.overallMshrUncacheable::cpu_cluster.cpus0.data          118                       # number of overall MSHR uncacheable misses (Count)
testsys.cpu_cluster.cpus0.dcache.overallMshrUncacheable::total          118                       # number of overall MSHR uncacheable misses (Count)
testsys.cpu_cluster.cpus0.dcache.demandMshrMissLatency::cpu_cluster.cpus0.data     67679500                       # number of demand (read+write) MSHR miss ticks (Tick)
testsys.cpu_cluster.cpus0.dcache.demandMshrMissLatency::total     67679500                       # number of demand (read+write) MSHR miss ticks (Tick)
testsys.cpu_cluster.cpus0.dcache.overallMshrMissLatency::cpu_cluster.cpus0.data     67679500                       # number of overall MSHR miss ticks (Tick)
testsys.cpu_cluster.cpus0.dcache.overallMshrMissLatency::total     67679500                       # number of overall MSHR miss ticks (Tick)
testsys.cpu_cluster.cpus0.dcache.overallMshrUncacheableLatency::cpu_cluster.cpus0.data      3978750                       # number of overall MSHR uncacheable ticks (Tick)
testsys.cpu_cluster.cpus0.dcache.overallMshrUncacheableLatency::total      3978750                       # number of overall MSHR uncacheable ticks (Tick)
testsys.cpu_cluster.cpus0.dcache.demandMshrMissRate::cpu_cluster.cpus0.data     0.015149                       # mshr miss ratio for demand accesses (Ratio)
testsys.cpu_cluster.cpus0.dcache.demandMshrMissRate::total     0.015149                       # mshr miss ratio for demand accesses (Ratio)
testsys.cpu_cluster.cpus0.dcache.overallMshrMissRate::cpu_cluster.cpus0.data     0.015149                       # mshr miss ratio for overall accesses (Ratio)
testsys.cpu_cluster.cpus0.dcache.overallMshrMissRate::total     0.015149                       # mshr miss ratio for overall accesses (Ratio)
testsys.cpu_cluster.cpus0.dcache.demandAvgMshrMissLatency::cpu_cluster.cpus0.data 32014.900662                       # average overall mshr miss latency ((Cycle/Count))
testsys.cpu_cluster.cpus0.dcache.demandAvgMshrMissLatency::total 32014.900662                       # average overall mshr miss latency ((Cycle/Count))
testsys.cpu_cluster.cpus0.dcache.overallAvgMshrMissLatency::cpu_cluster.cpus0.data 32014.900662                       # average overall mshr miss latency ((Cycle/Count))
testsys.cpu_cluster.cpus0.dcache.overallAvgMshrMissLatency::total 32014.900662                       # average overall mshr miss latency ((Cycle/Count))
testsys.cpu_cluster.cpus0.dcache.overallAvgMshrUncacheableLatency::cpu_cluster.cpus0.data 33718.220339                       # average overall mshr uncacheable latency ((Cycle/Count))
testsys.cpu_cluster.cpus0.dcache.overallAvgMshrUncacheableLatency::total 33718.220339                       # average overall mshr uncacheable latency ((Cycle/Count))
testsys.cpu_cluster.cpus0.dcache.replacements         1220                       # number of replacements (Count)
testsys.cpu_cluster.cpus0.dcache.LoadLockedReq.hits::cpu_cluster.cpus0.data            4                       # number of LoadLockedReq hits (Count)
testsys.cpu_cluster.cpus0.dcache.LoadLockedReq.hits::total            4                       # number of LoadLockedReq hits (Count)
testsys.cpu_cluster.cpus0.dcache.LoadLockedReq.misses::cpu_cluster.cpus0.data            1                       # number of LoadLockedReq misses (Count)
testsys.cpu_cluster.cpus0.dcache.LoadLockedReq.misses::total            1                       # number of LoadLockedReq misses (Count)
testsys.cpu_cluster.cpus0.dcache.LoadLockedReq.missLatency::cpu_cluster.cpus0.data         1750                       # number of LoadLockedReq miss ticks (Tick)
testsys.cpu_cluster.cpus0.dcache.LoadLockedReq.missLatency::total         1750                       # number of LoadLockedReq miss ticks (Tick)
testsys.cpu_cluster.cpus0.dcache.LoadLockedReq.accesses::cpu_cluster.cpus0.data            5                       # number of LoadLockedReq accesses(hits+misses) (Count)
testsys.cpu_cluster.cpus0.dcache.LoadLockedReq.accesses::total            5                       # number of LoadLockedReq accesses(hits+misses) (Count)
testsys.cpu_cluster.cpus0.dcache.LoadLockedReq.missRate::cpu_cluster.cpus0.data     0.200000                       # miss rate for LoadLockedReq accesses (Ratio)
testsys.cpu_cluster.cpus0.dcache.LoadLockedReq.missRate::total     0.200000                       # miss rate for LoadLockedReq accesses (Ratio)
testsys.cpu_cluster.cpus0.dcache.LoadLockedReq.avgMissLatency::cpu_cluster.cpus0.data         1750                       # average LoadLockedReq miss latency ((Tick/Count))
testsys.cpu_cluster.cpus0.dcache.LoadLockedReq.avgMissLatency::total         1750                       # average LoadLockedReq miss latency ((Tick/Count))
testsys.cpu_cluster.cpus0.dcache.LoadLockedReq.mshrMisses::cpu_cluster.cpus0.data            1                       # number of LoadLockedReq MSHR misses (Count)
testsys.cpu_cluster.cpus0.dcache.LoadLockedReq.mshrMisses::total            1                       # number of LoadLockedReq MSHR misses (Count)
testsys.cpu_cluster.cpus0.dcache.LoadLockedReq.mshrMissLatency::cpu_cluster.cpus0.data         1500                       # number of LoadLockedReq MSHR miss ticks (Tick)
testsys.cpu_cluster.cpus0.dcache.LoadLockedReq.mshrMissLatency::total         1500                       # number of LoadLockedReq MSHR miss ticks (Tick)
testsys.cpu_cluster.cpus0.dcache.LoadLockedReq.mshrMissRate::cpu_cluster.cpus0.data     0.200000                       # mshr miss rate for LoadLockedReq accesses (Ratio)
testsys.cpu_cluster.cpus0.dcache.LoadLockedReq.mshrMissRate::total     0.200000                       # mshr miss rate for LoadLockedReq accesses (Ratio)
testsys.cpu_cluster.cpus0.dcache.LoadLockedReq.avgMshrMissLatency::cpu_cluster.cpus0.data         1500                       # average LoadLockedReq mshr miss latency ((Tick/Count))
testsys.cpu_cluster.cpus0.dcache.LoadLockedReq.avgMshrMissLatency::total         1500                       # average LoadLockedReq mshr miss latency ((Tick/Count))
testsys.cpu_cluster.cpus0.dcache.ReadReq.hits::cpu_cluster.cpus0.data        75026                       # number of ReadReq hits (Count)
testsys.cpu_cluster.cpus0.dcache.ReadReq.hits::total        75026                       # number of ReadReq hits (Count)
testsys.cpu_cluster.cpus0.dcache.ReadReq.misses::cpu_cluster.cpus0.data         2525                       # number of ReadReq misses (Count)
testsys.cpu_cluster.cpus0.dcache.ReadReq.misses::total         2525                       # number of ReadReq misses (Count)
testsys.cpu_cluster.cpus0.dcache.ReadReq.missLatency::cpu_cluster.cpus0.data     97156500                       # number of ReadReq miss ticks (Tick)
testsys.cpu_cluster.cpus0.dcache.ReadReq.missLatency::total     97156500                       # number of ReadReq miss ticks (Tick)
testsys.cpu_cluster.cpus0.dcache.ReadReq.accesses::cpu_cluster.cpus0.data        77551                       # number of ReadReq accesses(hits+misses) (Count)
testsys.cpu_cluster.cpus0.dcache.ReadReq.accesses::total        77551                       # number of ReadReq accesses(hits+misses) (Count)
testsys.cpu_cluster.cpus0.dcache.ReadReq.missRate::cpu_cluster.cpus0.data     0.032559                       # miss rate for ReadReq accesses (Ratio)
testsys.cpu_cluster.cpus0.dcache.ReadReq.missRate::total     0.032559                       # miss rate for ReadReq accesses (Ratio)
testsys.cpu_cluster.cpus0.dcache.ReadReq.avgMissLatency::cpu_cluster.cpus0.data 38477.821782                       # average ReadReq miss latency ((Tick/Count))
testsys.cpu_cluster.cpus0.dcache.ReadReq.avgMissLatency::total 38477.821782                       # average ReadReq miss latency ((Tick/Count))
testsys.cpu_cluster.cpus0.dcache.ReadReq.mshrHits::cpu_cluster.cpus0.data          966                       # number of ReadReq MSHR hits (Count)
testsys.cpu_cluster.cpus0.dcache.ReadReq.mshrHits::total          966                       # number of ReadReq MSHR hits (Count)
testsys.cpu_cluster.cpus0.dcache.ReadReq.mshrMisses::cpu_cluster.cpus0.data         1559                       # number of ReadReq MSHR misses (Count)
testsys.cpu_cluster.cpus0.dcache.ReadReq.mshrMisses::total         1559                       # number of ReadReq MSHR misses (Count)
testsys.cpu_cluster.cpus0.dcache.ReadReq.mshrUncacheable::cpu_cluster.cpus0.data           82                       # number of ReadReq MSHR uncacheable (Count)
testsys.cpu_cluster.cpus0.dcache.ReadReq.mshrUncacheable::total           82                       # number of ReadReq MSHR uncacheable (Count)
testsys.cpu_cluster.cpus0.dcache.ReadReq.mshrMissLatency::cpu_cluster.cpus0.data     61813250                       # number of ReadReq MSHR miss ticks (Tick)
testsys.cpu_cluster.cpus0.dcache.ReadReq.mshrMissLatency::total     61813250                       # number of ReadReq MSHR miss ticks (Tick)
testsys.cpu_cluster.cpus0.dcache.ReadReq.mshrUncacheableLatency::cpu_cluster.cpus0.data      3978750                       # number of ReadReq MSHR uncacheable ticks (Tick)
testsys.cpu_cluster.cpus0.dcache.ReadReq.mshrUncacheableLatency::total      3978750                       # number of ReadReq MSHR uncacheable ticks (Tick)
testsys.cpu_cluster.cpus0.dcache.ReadReq.mshrMissRate::cpu_cluster.cpus0.data     0.020103                       # mshr miss rate for ReadReq accesses (Ratio)
testsys.cpu_cluster.cpus0.dcache.ReadReq.mshrMissRate::total     0.020103                       # mshr miss rate for ReadReq accesses (Ratio)
testsys.cpu_cluster.cpus0.dcache.ReadReq.avgMshrMissLatency::cpu_cluster.cpus0.data 39649.294419                       # average ReadReq mshr miss latency ((Tick/Count))
testsys.cpu_cluster.cpus0.dcache.ReadReq.avgMshrMissLatency::total 39649.294419                       # average ReadReq mshr miss latency ((Tick/Count))
testsys.cpu_cluster.cpus0.dcache.ReadReq.avgMshrUncacheableLatency::cpu_cluster.cpus0.data 48521.341463                       # average ReadReq mshr uncacheable latency ((Tick/Count))
testsys.cpu_cluster.cpus0.dcache.ReadReq.avgMshrUncacheableLatency::total 48521.341463                       # average ReadReq mshr uncacheable latency ((Tick/Count))
testsys.cpu_cluster.cpus0.dcache.SwapReq.hits::cpu_cluster.cpus0.data         1958                       # number of SwapReq hits (Count)
testsys.cpu_cluster.cpus0.dcache.SwapReq.hits::total         1958                       # number of SwapReq hits (Count)
testsys.cpu_cluster.cpus0.dcache.SwapReq.misses::cpu_cluster.cpus0.data          204                       # number of SwapReq misses (Count)
testsys.cpu_cluster.cpus0.dcache.SwapReq.misses::total          204                       # number of SwapReq misses (Count)
testsys.cpu_cluster.cpus0.dcache.SwapReq.missLatency::cpu_cluster.cpus0.data      1028000                       # number of SwapReq miss ticks (Tick)
testsys.cpu_cluster.cpus0.dcache.SwapReq.missLatency::total      1028000                       # number of SwapReq miss ticks (Tick)
testsys.cpu_cluster.cpus0.dcache.SwapReq.accesses::cpu_cluster.cpus0.data         2162                       # number of SwapReq accesses(hits+misses) (Count)
testsys.cpu_cluster.cpus0.dcache.SwapReq.accesses::total         2162                       # number of SwapReq accesses(hits+misses) (Count)
testsys.cpu_cluster.cpus0.dcache.SwapReq.missRate::cpu_cluster.cpus0.data     0.094357                       # miss rate for SwapReq accesses (Ratio)
testsys.cpu_cluster.cpus0.dcache.SwapReq.missRate::total     0.094357                       # miss rate for SwapReq accesses (Ratio)
testsys.cpu_cluster.cpus0.dcache.SwapReq.avgMissLatency::cpu_cluster.cpus0.data  5039.215686                       # average SwapReq miss latency ((Tick/Count))
testsys.cpu_cluster.cpus0.dcache.SwapReq.avgMissLatency::total  5039.215686                       # average SwapReq miss latency ((Tick/Count))
testsys.cpu_cluster.cpus0.dcache.SwapReq.mshrMisses::cpu_cluster.cpus0.data          204                       # number of SwapReq MSHR misses (Count)
testsys.cpu_cluster.cpus0.dcache.SwapReq.mshrMisses::total          204                       # number of SwapReq MSHR misses (Count)
testsys.cpu_cluster.cpus0.dcache.SwapReq.mshrMissLatency::cpu_cluster.cpus0.data       977000                       # number of SwapReq MSHR miss ticks (Tick)
testsys.cpu_cluster.cpus0.dcache.SwapReq.mshrMissLatency::total       977000                       # number of SwapReq MSHR miss ticks (Tick)
testsys.cpu_cluster.cpus0.dcache.SwapReq.mshrMissRate::cpu_cluster.cpus0.data     0.094357                       # mshr miss rate for SwapReq accesses (Ratio)
testsys.cpu_cluster.cpus0.dcache.SwapReq.mshrMissRate::total     0.094357                       # mshr miss rate for SwapReq accesses (Ratio)
testsys.cpu_cluster.cpus0.dcache.SwapReq.avgMshrMissLatency::cpu_cluster.cpus0.data  4789.215686                       # average SwapReq mshr miss latency ((Tick/Count))
testsys.cpu_cluster.cpus0.dcache.SwapReq.avgMshrMissLatency::total  4789.215686                       # average SwapReq mshr miss latency ((Tick/Count))
testsys.cpu_cluster.cpus0.dcache.WriteReq.hits::cpu_cluster.cpus0.data        60965                       # number of WriteReq hits (Count)
testsys.cpu_cluster.cpus0.dcache.WriteReq.hits::total        60965                       # number of WriteReq hits (Count)
testsys.cpu_cluster.cpus0.dcache.WriteReq.misses::cpu_cluster.cpus0.data         1034                       # number of WriteReq misses (Count)
testsys.cpu_cluster.cpus0.dcache.WriteReq.misses::total         1034                       # number of WriteReq misses (Count)
testsys.cpu_cluster.cpus0.dcache.WriteReq.missLatency::cpu_cluster.cpus0.data     11784000                       # number of WriteReq miss ticks (Tick)
testsys.cpu_cluster.cpus0.dcache.WriteReq.missLatency::total     11784000                       # number of WriteReq miss ticks (Tick)
testsys.cpu_cluster.cpus0.dcache.WriteReq.accesses::cpu_cluster.cpus0.data        61999                       # number of WriteReq accesses(hits+misses) (Count)
testsys.cpu_cluster.cpus0.dcache.WriteReq.accesses::total        61999                       # number of WriteReq accesses(hits+misses) (Count)
testsys.cpu_cluster.cpus0.dcache.WriteReq.missRate::cpu_cluster.cpus0.data     0.016678                       # miss rate for WriteReq accesses (Ratio)
testsys.cpu_cluster.cpus0.dcache.WriteReq.missRate::total     0.016678                       # miss rate for WriteReq accesses (Ratio)
testsys.cpu_cluster.cpus0.dcache.WriteReq.avgMissLatency::cpu_cluster.cpus0.data 11396.518375                       # average WriteReq miss latency ((Tick/Count))
testsys.cpu_cluster.cpus0.dcache.WriteReq.avgMissLatency::total 11396.518375                       # average WriteReq miss latency ((Tick/Count))
testsys.cpu_cluster.cpus0.dcache.WriteReq.mshrHits::cpu_cluster.cpus0.data          479                       # number of WriteReq MSHR hits (Count)
testsys.cpu_cluster.cpus0.dcache.WriteReq.mshrHits::total          479                       # number of WriteReq MSHR hits (Count)
testsys.cpu_cluster.cpus0.dcache.WriteReq.mshrMisses::cpu_cluster.cpus0.data          555                       # number of WriteReq MSHR misses (Count)
testsys.cpu_cluster.cpus0.dcache.WriteReq.mshrMisses::total          555                       # number of WriteReq MSHR misses (Count)
testsys.cpu_cluster.cpus0.dcache.WriteReq.mshrUncacheable::cpu_cluster.cpus0.data           36                       # number of WriteReq MSHR uncacheable (Count)
testsys.cpu_cluster.cpus0.dcache.WriteReq.mshrUncacheable::total           36                       # number of WriteReq MSHR uncacheable (Count)
testsys.cpu_cluster.cpus0.dcache.WriteReq.mshrMissLatency::cpu_cluster.cpus0.data      5866250                       # number of WriteReq MSHR miss ticks (Tick)
testsys.cpu_cluster.cpus0.dcache.WriteReq.mshrMissLatency::total      5866250                       # number of WriteReq MSHR miss ticks (Tick)
testsys.cpu_cluster.cpus0.dcache.WriteReq.mshrMissRate::cpu_cluster.cpus0.data     0.008952                       # mshr miss rate for WriteReq accesses (Ratio)
testsys.cpu_cluster.cpus0.dcache.WriteReq.mshrMissRate::total     0.008952                       # mshr miss rate for WriteReq accesses (Ratio)
testsys.cpu_cluster.cpus0.dcache.WriteReq.avgMshrMissLatency::cpu_cluster.cpus0.data 10569.819820                       # average WriteReq mshr miss latency ((Tick/Count))
testsys.cpu_cluster.cpus0.dcache.WriteReq.avgMshrMissLatency::total 10569.819820                       # average WriteReq mshr miss latency ((Tick/Count))
testsys.cpu_cluster.cpus0.dcache.power_state.pwrStateResidencyTicks::UNDEFINED 569178986250                       # Cumulative time (in ticks) in various power states (Tick)
testsys.cpu_cluster.cpus0.dcache.tags.tagsInUse   465.390874                       # Average ticks per tags in use ((Tick/Count))
testsys.cpu_cluster.cpus0.dcache.tags.totalRefs       168400                       # Total number of references to valid blocks. (Count)
testsys.cpu_cluster.cpus0.dcache.tags.sampledRefs         2234                       # Sample count of references to valid blocks. (Count)
testsys.cpu_cluster.cpus0.dcache.tags.avgRefs    75.380483                       # Average number of references to valid blocks. ((Count/Count))
testsys.cpu_cluster.cpus0.dcache.tags.warmupTick            0                       # The tick when the warmup percentage was hit. (Tick)
testsys.cpu_cluster.cpus0.dcache.tags.occupancies::cpu_cluster.cpus0.data   465.390874                       # Average occupied blocks per tick, per requestor ((Count/Tick))
testsys.cpu_cluster.cpus0.dcache.tags.avgOccs::cpu_cluster.cpus0.data     0.908967                       # Average percentage of cache occupancy ((Ratio/Tick))
testsys.cpu_cluster.cpus0.dcache.tags.avgOccs::total     0.908967                       # Average percentage of cache occupancy ((Ratio/Tick))
testsys.cpu_cluster.cpus0.dcache.tags.occupanciesTaskId::1024          454                       # Occupied blocks per task id (Count)
testsys.cpu_cluster.cpus0.dcache.tags.ageTaskId_1024::3            4                       # Occupied blocks per task id, per block age (Count)
testsys.cpu_cluster.cpus0.dcache.tags.ageTaskId_1024::4          450                       # Occupied blocks per task id, per block age (Count)
testsys.cpu_cluster.cpus0.dcache.tags.ratioOccsTaskId::1024     0.886719                       # Ratio of occupied blocks and all blocks, per task id (Ratio)
testsys.cpu_cluster.cpus0.dcache.tags.tagAccesses       285269                       # Number of tag accesses (Count)
testsys.cpu_cluster.cpus0.dcache.tags.dataAccesses       285269                       # Number of data accesses (Count)
testsys.cpu_cluster.cpus0.dcache.tags.power_state.pwrStateResidencyTicks::UNDEFINED 569178986250                       # Cumulative time (in ticks) in various power states (Tick)
testsys.cpu_cluster.cpus0.decode.idleCycles       112394                       # Number of cycles decode is idle (Cycle)
testsys.cpu_cluster.cpus0.decode.blockedCycles       573739                       # Number of cycles decode is blocked (Cycle)
testsys.cpu_cluster.cpus0.decode.runCycles        72685                       # Number of cycles decode is running (Cycle)
testsys.cpu_cluster.cpus0.decode.unblockCycles        28729                       # Number of cycles decode is unblocking (Cycle)
testsys.cpu_cluster.cpus0.decode.squashCycles         3118                       # Number of cycles decode is squashing (Cycle)
testsys.cpu_cluster.cpus0.decode.branchResolved        48156                       # Number of times decode resolved a branch (Count)
testsys.cpu_cluster.cpus0.decode.branchMispred          870                       # Number of times decode detected a branch misprediction (Count)
testsys.cpu_cluster.cpus0.decode.decodedInsts       627956                       # Number of instructions handled by decode (Count)
testsys.cpu_cluster.cpus0.decode.squashedInsts         3169                       # Number of squashed instructions handled by decode (Count)
testsys.cpu_cluster.cpus0.dtb_walker_cache.demandHits::cpu_cluster.cpus0.mmu.dtb_walker         1602                       # number of demand (read+write) hits (Count)
testsys.cpu_cluster.cpus0.dtb_walker_cache.demandHits::total         1602                       # number of demand (read+write) hits (Count)
testsys.cpu_cluster.cpus0.dtb_walker_cache.overallHits::cpu_cluster.cpus0.mmu.dtb_walker         1602                       # number of overall hits (Count)
testsys.cpu_cluster.cpus0.dtb_walker_cache.overallHits::total         1602                       # number of overall hits (Count)
testsys.cpu_cluster.cpus0.dtb_walker_cache.demandMisses::cpu_cluster.cpus0.mmu.dtb_walker          857                       # number of demand (read+write) misses (Count)
testsys.cpu_cluster.cpus0.dtb_walker_cache.demandMisses::total          857                       # number of demand (read+write) misses (Count)
testsys.cpu_cluster.cpus0.dtb_walker_cache.overallMisses::cpu_cluster.cpus0.mmu.dtb_walker          857                       # number of overall misses (Count)
testsys.cpu_cluster.cpus0.dtb_walker_cache.overallMisses::total          857                       # number of overall misses (Count)
testsys.cpu_cluster.cpus0.dtb_walker_cache.demandMissLatency::cpu_cluster.cpus0.mmu.dtb_walker     40114893                       # number of demand (read+write) miss ticks (Tick)
testsys.cpu_cluster.cpus0.dtb_walker_cache.demandMissLatency::total     40114893                       # number of demand (read+write) miss ticks (Tick)
testsys.cpu_cluster.cpus0.dtb_walker_cache.overallMissLatency::cpu_cluster.cpus0.mmu.dtb_walker     40114893                       # number of overall miss ticks (Tick)
testsys.cpu_cluster.cpus0.dtb_walker_cache.overallMissLatency::total     40114893                       # number of overall miss ticks (Tick)
testsys.cpu_cluster.cpus0.dtb_walker_cache.demandAccesses::cpu_cluster.cpus0.mmu.dtb_walker         2459                       # number of demand (read+write) accesses (Count)
testsys.cpu_cluster.cpus0.dtb_walker_cache.demandAccesses::total         2459                       # number of demand (read+write) accesses (Count)
testsys.cpu_cluster.cpus0.dtb_walker_cache.overallAccesses::cpu_cluster.cpus0.mmu.dtb_walker         2459                       # number of overall (read+write) accesses (Count)
testsys.cpu_cluster.cpus0.dtb_walker_cache.overallAccesses::total         2459                       # number of overall (read+write) accesses (Count)
testsys.cpu_cluster.cpus0.dtb_walker_cache.demandMissRate::cpu_cluster.cpus0.mmu.dtb_walker     0.348516                       # miss rate for demand accesses (Ratio)
testsys.cpu_cluster.cpus0.dtb_walker_cache.demandMissRate::total     0.348516                       # miss rate for demand accesses (Ratio)
testsys.cpu_cluster.cpus0.dtb_walker_cache.overallMissRate::cpu_cluster.cpus0.mmu.dtb_walker     0.348516                       # miss rate for overall accesses (Ratio)
testsys.cpu_cluster.cpus0.dtb_walker_cache.overallMissRate::total     0.348516                       # miss rate for overall accesses (Ratio)
testsys.cpu_cluster.cpus0.dtb_walker_cache.demandAvgMissLatency::cpu_cluster.cpus0.mmu.dtb_walker 46808.509918                       # average overall miss latency ((Cycle/Count))
testsys.cpu_cluster.cpus0.dtb_walker_cache.demandAvgMissLatency::total 46808.509918                       # average overall miss latency ((Cycle/Count))
testsys.cpu_cluster.cpus0.dtb_walker_cache.overallAvgMissLatency::cpu_cluster.cpus0.mmu.dtb_walker 46808.509918                       # average overall miss latency ((Cycle/Count))
testsys.cpu_cluster.cpus0.dtb_walker_cache.overallAvgMissLatency::total 46808.509918                       # average overall miss latency ((Cycle/Count))
testsys.cpu_cluster.cpus0.dtb_walker_cache.blockedCycles::no_mshrs            0                       # number of cycles access was blocked (Cycle)
testsys.cpu_cluster.cpus0.dtb_walker_cache.blockedCycles::no_targets            0                       # number of cycles access was blocked (Cycle)
testsys.cpu_cluster.cpus0.dtb_walker_cache.blockedCauses::no_mshrs            0                       # number of times access was blocked (Count)
testsys.cpu_cluster.cpus0.dtb_walker_cache.blockedCauses::no_targets            0                       # number of times access was blocked (Count)
testsys.cpu_cluster.cpus0.dtb_walker_cache.avgBlocked::no_mshrs          nan                       # average number of cycles each access was blocked ((Cycle/Count))
testsys.cpu_cluster.cpus0.dtb_walker_cache.avgBlocked::no_targets          nan                       # average number of cycles each access was blocked ((Cycle/Count))
testsys.cpu_cluster.cpus0.dtb_walker_cache.writebacks::writebacks          857                       # number of writebacks (Count)
testsys.cpu_cluster.cpus0.dtb_walker_cache.writebacks::total          857                       # number of writebacks (Count)
testsys.cpu_cluster.cpus0.dtb_walker_cache.demandMshrMisses::cpu_cluster.cpus0.mmu.dtb_walker          857                       # number of demand (read+write) MSHR misses (Count)
testsys.cpu_cluster.cpus0.dtb_walker_cache.demandMshrMisses::total          857                       # number of demand (read+write) MSHR misses (Count)
testsys.cpu_cluster.cpus0.dtb_walker_cache.overallMshrMisses::cpu_cluster.cpus0.mmu.dtb_walker          857                       # number of overall MSHR misses (Count)
testsys.cpu_cluster.cpus0.dtb_walker_cache.overallMshrMisses::total          857                       # number of overall MSHR misses (Count)
testsys.cpu_cluster.cpus0.dtb_walker_cache.demandMshrMissLatency::cpu_cluster.cpus0.mmu.dtb_walker     39257893                       # number of demand (read+write) MSHR miss ticks (Tick)
testsys.cpu_cluster.cpus0.dtb_walker_cache.demandMshrMissLatency::total     39257893                       # number of demand (read+write) MSHR miss ticks (Tick)
testsys.cpu_cluster.cpus0.dtb_walker_cache.overallMshrMissLatency::cpu_cluster.cpus0.mmu.dtb_walker     39257893                       # number of overall MSHR miss ticks (Tick)
testsys.cpu_cluster.cpus0.dtb_walker_cache.overallMshrMissLatency::total     39257893                       # number of overall MSHR miss ticks (Tick)
testsys.cpu_cluster.cpus0.dtb_walker_cache.demandMshrMissRate::cpu_cluster.cpus0.mmu.dtb_walker     0.348516                       # mshr miss ratio for demand accesses (Ratio)
testsys.cpu_cluster.cpus0.dtb_walker_cache.demandMshrMissRate::total     0.348516                       # mshr miss ratio for demand accesses (Ratio)
testsys.cpu_cluster.cpus0.dtb_walker_cache.overallMshrMissRate::cpu_cluster.cpus0.mmu.dtb_walker     0.348516                       # mshr miss ratio for overall accesses (Ratio)
testsys.cpu_cluster.cpus0.dtb_walker_cache.overallMshrMissRate::total     0.348516                       # mshr miss ratio for overall accesses (Ratio)
testsys.cpu_cluster.cpus0.dtb_walker_cache.demandAvgMshrMissLatency::cpu_cluster.cpus0.mmu.dtb_walker 45808.509918                       # average overall mshr miss latency ((Cycle/Count))
testsys.cpu_cluster.cpus0.dtb_walker_cache.demandAvgMshrMissLatency::total 45808.509918                       # average overall mshr miss latency ((Cycle/Count))
testsys.cpu_cluster.cpus0.dtb_walker_cache.overallAvgMshrMissLatency::cpu_cluster.cpus0.mmu.dtb_walker 45808.509918                       # average overall mshr miss latency ((Cycle/Count))
testsys.cpu_cluster.cpus0.dtb_walker_cache.overallAvgMshrMissLatency::total 45808.509918                       # average overall mshr miss latency ((Cycle/Count))
testsys.cpu_cluster.cpus0.dtb_walker_cache.replacements          857                       # number of replacements (Count)
testsys.cpu_cluster.cpus0.dtb_walker_cache.ReadReq.hits::cpu_cluster.cpus0.mmu.dtb_walker         1602                       # number of ReadReq hits (Count)
testsys.cpu_cluster.cpus0.dtb_walker_cache.ReadReq.hits::total         1602                       # number of ReadReq hits (Count)
testsys.cpu_cluster.cpus0.dtb_walker_cache.ReadReq.misses::cpu_cluster.cpus0.mmu.dtb_walker          857                       # number of ReadReq misses (Count)
testsys.cpu_cluster.cpus0.dtb_walker_cache.ReadReq.misses::total          857                       # number of ReadReq misses (Count)
testsys.cpu_cluster.cpus0.dtb_walker_cache.ReadReq.missLatency::cpu_cluster.cpus0.mmu.dtb_walker     40114893                       # number of ReadReq miss ticks (Tick)
testsys.cpu_cluster.cpus0.dtb_walker_cache.ReadReq.missLatency::total     40114893                       # number of ReadReq miss ticks (Tick)
testsys.cpu_cluster.cpus0.dtb_walker_cache.ReadReq.accesses::cpu_cluster.cpus0.mmu.dtb_walker         2459                       # number of ReadReq accesses(hits+misses) (Count)
testsys.cpu_cluster.cpus0.dtb_walker_cache.ReadReq.accesses::total         2459                       # number of ReadReq accesses(hits+misses) (Count)
testsys.cpu_cluster.cpus0.dtb_walker_cache.ReadReq.missRate::cpu_cluster.cpus0.mmu.dtb_walker     0.348516                       # miss rate for ReadReq accesses (Ratio)
testsys.cpu_cluster.cpus0.dtb_walker_cache.ReadReq.missRate::total     0.348516                       # miss rate for ReadReq accesses (Ratio)
testsys.cpu_cluster.cpus0.dtb_walker_cache.ReadReq.avgMissLatency::cpu_cluster.cpus0.mmu.dtb_walker 46808.509918                       # average ReadReq miss latency ((Tick/Count))
[...]
testsys.pci_devices1.power_state.pwrStateResidencyTicks::UNDEFINED 569178986250                       # Cumulative time (in ticks) in various power states (Tick)
testsys.pci_devices2.EtherDevice.postedInterrupts            0                       # Number of posts to CPU (Count)
testsys.pci_devices2.EtherDevice.descDmaReads            0                       # Number of descriptors the device read w/ DMA (Count)
testsys.pci_devices2.EtherDevice.descDmaWrites            0                       # Number of descriptors the device wrote w/ DMA (Count)
testsys.pci_devices2.EtherDevice.descDmaRdBytes            0                       # Number of descriptor bytes read w/ DMA (Count)
testsys.pci_devices2.EtherDevice.descDmaWrBytes            0                       # Number of descriptor bytes write w/ DMA (Count)
testsys.pci_devices2.EtherDevice.postedSwi            0                       # Number of software interrupts posted to CPU (Count)
testsys.pci_devices2.EtherDevice.totalSwi            0                       # Total number of Swi written to ISR (Count)
testsys.pci_devices2.EtherDevice.coalescedSwi          nan                       # Average number of Swi's coalesced into each post ((Count/Count))
testsys.pci_devices2.EtherDevice.postedRxIdle            0                       # Number of rxIdle interrupts posted to CPU (Count)
testsys.pci_devices2.EtherDevice.totalRxIdle            0                       # Total number of RxIdle written to ISR (Count)
testsys.pci_devices2.EtherDevice.coalescedRxIdle          nan                       # Average number of RxIdle's coalesced into each post ((Count/Count))
testsys.pci_devices2.EtherDevice.postedRxOk            0                       # Number of RxOk interrupts posted to CPU (Count)
testsys.pci_devices2.EtherDevice.totalRxOk            0                       # Total number of RxOk written to ISR (Count)
testsys.pci_devices2.EtherDevice.coalescedRxOk          nan                       # Average number of RxOk's coalesced into each post ((Count/Count))
testsys.pci_devices2.EtherDevice.postedRxDesc            0                       # Number of RxDesc interrupts posted to CPU (Count)
testsys.pci_devices2.EtherDevice.totalRxDesc            0                       # Total number of RxDesc written to ISR (Count)
testsys.pci_devices2.EtherDevice.coalescedRxDesc          nan                       # Average number of RxDesc's coalesced into each post ((Count/Count))
testsys.pci_devices2.EtherDevice.postedTxOk            0                       # Number of TxOk interrupts posted to CPU (Count)
testsys.pci_devices2.EtherDevice.totalTxOk            0                       # Total number of TxOk written to ISR (Count)
testsys.pci_devices2.EtherDevice.coalescedTxOk          nan                       # Average number of TxOk's coalesced into each post ((Count/Count))
testsys.pci_devices2.EtherDevice.postedTxIdle            0                       # Number of TxIdle interrupts posted to CPU (Count)
testsys.pci_devices2.EtherDevice.totalTxIdle            0                       # Total number of TxIdle written to ISR (Count)
testsys.pci_devices2.EtherDevice.coalescedTxIdle          nan                       # Average number of TxIdle's coalesced into each post ((Count/Count))
testsys.pci_devices2.EtherDevice.postedTxDesc            0                       # Number of TxDesc interrupts posted to CPU (Count)
testsys.pci_devices2.EtherDevice.totalTxDesc            0                       # Total number of TxDesc written to ISR (Count)
testsys.pci_devices2.EtherDevice.coalescedTxDesc          nan                       # Average number of TxDesc's coalesced into each post ((Count/Count))
testsys.pci_devices2.EtherDevice.postedRxOrn            0                       # Number of RxOrn posted to CPU (Count)
testsys.pci_devices2.EtherDevice.totalRxOrn            0                       # Total number of RxOrn written to ISR (Count)
testsys.pci_devices2.EtherDevice.coalescedRxOrn          nan                       # Average number of RxOrn's coalesced into each post ((Count/Count))
testsys.pci_devices2.EtherDevice.coalescedTotal          nan                       # Average number of interrupts coalesced into each post ((Count/Count))
testsys.pci_devices2.EtherDevice.droppedPackets            0                       # Number of packets dropped (Count)
testsys.pci_devices2.power_state.pwrStateResidencyTicks::UNDEFINED 569178986250                       # Cumulative time (in ticks) in various power states (Tick)
testsys.pci_devices3.EtherDevice.postedInterrupts            0                       # Number of posts to CPU (Count)
testsys.pci_devices3.EtherDevice.descDmaReads            0                       # Number of descriptors the device read w/ DMA (Count)
testsys.pci_devices3.EtherDevice.descDmaWrites            0                       # Number of descriptors the device wrote w/ DMA (Count)
testsys.pci_devices3.EtherDevice.descDmaRdBytes            0                       # Number of descriptor bytes read w/ DMA (Count)
testsys.pci_devices3.EtherDevice.descDmaWrBytes            0                       # Number of descriptor bytes write w/ DMA (Count)
testsys.pci_devices3.EtherDevice.postedSwi            0                       # Number of software interrupts posted to CPU (Count)
testsys.pci_devices3.EtherDevice.totalSwi            0                       # Total number of Swi written to ISR (Count)
testsys.pci_devices3.EtherDevice.coalescedSwi          nan                       # Average number of Swi's coalesced into each post ((Count/Count))
testsys.pci_devices3.EtherDevice.postedRxIdle            0                       # Number of rxIdle interrupts posted to CPU (Count)
testsys.pci_devices3.EtherDevice.totalRxIdle            0                       # Total number of RxIdle written to ISR (Count)
testsys.pci_devices3.EtherDevice.coalescedRxIdle          nan                       # Average number of RxIdle's coalesced into each post ((Count/Count))
testsys.pci_devices3.EtherDevice.postedRxOk            0                       # Number of RxOk interrupts posted to CPU (Count)
testsys.pci_devices3.EtherDevice.totalRxOk            0                       # Total number of RxOk written to ISR (Count)
testsys.pci_devices3.EtherDevice.coalescedRxOk          nan                       # Average number of RxOk's coalesced into each post ((Count/Count))
testsys.pci_devices3.EtherDevice.postedRxDesc            0                       # Number of RxDesc interrupts posted to CPU (Count)
testsys.pci_devices3.EtherDevice.totalRxDesc            0                       # Total number of RxDesc written to ISR (Count)
testsys.pci_devices3.EtherDevice.coalescedRxDesc          nan                       # Average number of RxDesc's coalesced into each post ((Count/Count))
testsys.pci_devices3.EtherDevice.postedTxOk            0                       # Number of TxOk interrupts posted to CPU (Count)
testsys.pci_devices3.EtherDevice.totalTxOk            0                       # Total number of TxOk written to ISR (Count)
testsys.pci_devices3.EtherDevice.coalescedTxOk          nan                       # Average number of TxOk's coalesced into each post ((Count/Count))
testsys.pci_devices3.EtherDevice.postedTxIdle            0                       # Number of TxIdle interrupts posted to CPU (Count)
testsys.pci_devices3.EtherDevice.totalTxIdle            0                       # Total number of TxIdle written to ISR (Count)
testsys.pci_devices3.EtherDevice.coalescedTxIdle          nan                       # Average number of TxIdle's coalesced into each post ((Count/Count))
testsys.pci_devices3.EtherDevice.postedTxDesc            0                       # Number of TxDesc interrupts posted to CPU (Count)
testsys.pci_devices3.EtherDevice.totalTxDesc            0                       # Total number of TxDesc written to ISR (Count)
testsys.pci_devices3.EtherDevice.coalescedTxDesc          nan                       # Average number of TxDesc's coalesced into each post ((Count/Count))
testsys.pci_devices3.EtherDevice.postedRxOrn            0                       # Number of RxOrn posted to CPU (Count)
testsys.pci_devices3.EtherDevice.totalRxOrn            0                       # Total number of RxOrn written to ISR (Count)
testsys.pci_devices3.EtherDevice.coalescedRxOrn          nan                       # Average number of RxOrn's coalesced into each post ((Count/Count))
testsys.pci_devices3.EtherDevice.coalescedTotal          nan                       # Average number of interrupts coalesced into each post ((Count/Count))
testsys.pci_devices3.EtherDevice.droppedPackets            0                       # Number of packets dropped (Count)
testsys.pci_devices3.power_state.pwrStateResidencyTicks::UNDEFINED 569178986250                       # Cumulative time (in ticks) in various power states (Tick)
testsys.pci_devices4.EtherDevice.postedInterrupts            0                       # Number of posts to CPU (Count)
testsys.pci_devices4.EtherDevice.descDmaReads            0                       # Number of descriptors the device read w/ DMA (Count)
testsys.pci_devices4.EtherDevice.descDmaWrites            0                       # Number of descriptors the device wrote w/ DMA (Count)
testsys.pci_devices4.EtherDevice.descDmaRdBytes            0                       # Number of descriptor bytes read w/ DMA (Count)
testsys.pci_devices4.EtherDevice.descDmaWrBytes            0                       # Number of descriptor bytes write w/ DMA (Count)
testsys.pci_devices4.EtherDevice.postedSwi            0                       # Number of software interrupts posted to CPU (Count)
testsys.pci_devices4.EtherDevice.totalSwi            0                       # Total number of Swi written to ISR (Count)
testsys.pci_devices4.EtherDevice.coalescedSwi          nan                       # Average number of Swi's coalesced into each post ((Count/Count))
testsys.pci_devices4.EtherDevice.postedRxIdle            0                       # Number of rxIdle interrupts posted to CPU (Count)
testsys.pci_devices4.EtherDevice.totalRxIdle            0                       # Total number of RxIdle written to ISR (Count)
testsys.pci_devices4.EtherDevice.coalescedRxIdle          nan                       # Average number of RxIdle's coalesced into each post ((Count/Count))
testsys.pci_devices4.EtherDevice.postedRxOk            0                       # Number of RxOk interrupts posted to CPU (Count)
testsys.pci_devices4.EtherDevice.totalRxOk            0                       # Total number of RxOk written to ISR (Count)
testsys.pci_devices4.EtherDevice.coalescedRxOk          nan                       # Average number of RxOk's coalesced into each post ((Count/Count))
testsys.pci_devices4.EtherDevice.postedRxDesc            0                       # Number of RxDesc interrupts posted to CPU (Count)
testsys.pci_devices4.EtherDevice.totalRxDesc            0                       # Total number of RxDesc written to ISR (Count)
testsys.pci_devices4.EtherDevice.coalescedRxDesc          nan                       # Average number of RxDesc's coalesced into each post ((Count/Count))
testsys.pci_devices4.EtherDevice.postedTxOk            0                       # Number of TxOk interrupts posted to CPU (Count)
testsys.pci_devices4.EtherDevice.totalTxOk            0                       # Total number of TxOk written to ISR (Count)
testsys.pci_devices4.EtherDevice.coalescedTxOk          nan                       # Average number of TxOk's coalesced into each post ((Count/Count))
testsys.pci_devices4.EtherDevice.postedTxIdle            0                       # Number of TxIdle interrupts posted to CPU (Count)
testsys.pci_devices4.EtherDevice.totalTxIdle            0                       # Total number of TxIdle written to ISR (Count)
testsys.pci_devices4.EtherDevice.coalescedTxIdle          nan                       # Average number of TxIdle's coalesced into each post ((Count/Count))
testsys.pci_devices4.EtherDevice.postedTxDesc            0                       # Number of TxDesc interrupts posted to CPU (Count)
testsys.pci_devices4.EtherDevice.totalTxDesc            0                       # Total number of TxDesc written to ISR (Count)
testsys.pci_devices4.EtherDevice.coalescedTxDesc          nan                       # Average number of TxDesc's coalesced into each post ((Count/Count))
testsys.pci_devices4.EtherDevice.postedRxOrn            0                       # Number of RxOrn posted to CPU (Count)
testsys.pci_devices4.EtherDevice.totalRxOrn            0                       # Total number of RxOrn written to ISR (Count)
testsys.pci_devices4.EtherDevice.coalescedRxOrn          nan                       # Average number of RxOrn's coalesced into each post ((Count/Count))
testsys.pci_devices4.EtherDevice.coalescedTotal          nan                       # Average number of interrupts coalesced into each post ((Count/Count))
testsys.pci_devices4.EtherDevice.droppedPackets            0                       # Number of packets dropped (Count)
testsys.pci_devices4.power_state.pwrStateResidencyTicks::UNDEFINED 569178986250                       # Cumulative time (in ticks) in various power states (Tick)
testsys.realview.bootmem.power_state.pwrStateResidencyTicks::UNDEFINED 569178986250                       # Cumulative time (in ticks) in various power states (Tick)
testsys.realview.clock24MHz.clock               41667                       # Clock period in ticks (Tick)
testsys.realview.clock32KHz.clock            31250000                       # Clock period in ticks (Tick)
testsys.realview.dcc.osc_cpu.clock              16667                       # Clock period in ticks (Tick)
testsys.realview.dcc.osc_ddr.clock              25000                       # Clock period in ticks (Tick)
testsys.realview.dcc.osc_hsbm.clock             25000                       # Clock period in ticks (Tick)
testsys.realview.dcc.osc_pxl.clock              42105                       # Clock period in ticks (Tick)
testsys.realview.dcc.osc_smb.clock              20000                       # Clock period in ticks (Tick)
testsys.realview.dcc.osc_sys.clock              16667                       # Clock period in ticks (Tick)
testsys.realview.el2_watchdog.power_state.pwrStateResidencyTicks::UNDEFINED 569178986250                       # Cumulative time (in ticks) in various power states (Tick)
testsys.realview.energy_ctrl.power_state.pwrStateResidencyTicks::UNDEFINED 569178986250                       # Cumulative time (in ticks) in various power states (Tick)
testsys.realview.flash0.power_state.pwrStateResidencyTicks::UNDEFINED 569178986250                       # Cumulative time (in ticks) in various power states (Tick)
testsys.realview.flash1.power_state.pwrStateResidencyTicks::UNDEFINED 569178986250                       # Cumulative time (in ticks) in various power states (Tick)
testsys.realview.generic_timer_mem.frames0.power_state.pwrStateResidencyTicks::UNDEFINED 569178986250                       # Cumulative time (in ticks) in various power states (Tick)
testsys.realview.generic_timer_mem.frames1.power_state.pwrStateResidencyTicks::UNDEFINED 569178986250                       # Cumulative time (in ticks) in various power states (Tick)
testsys.realview.generic_timer_mem.power_state.pwrStateResidencyTicks::UNDEFINED 569178986250                       # Cumulative time (in ticks) in various power states (Tick)
testsys.realview.gic.power_state.pwrStateResidencyTicks::UNDEFINED 569178986250                       # Cumulative time (in ticks) in various power states (Tick)
testsys.realview.gicv2m.power_state.pwrStateResidencyTicks::UNDEFINED 569178986250                       # Cumulative time (in ticks) in various power states (Tick)
testsys.realview.io_voltage.voltage          3.300000                       # Voltage in Volts (Volt)
testsys.realview.kmi0.power_state.pwrStateResidencyTicks::UNDEFINED 569178986250                       # Cumulative time (in ticks) in various power states (Tick)
testsys.realview.kmi1.power_state.pwrStateResidencyTicks::UNDEFINED 569178986250                       # Cumulative time (in ticks) in various power states (Tick)
testsys.realview.mcc.osc_clcd.clock             42105                       # Clock period in ticks (Tick)
testsys.realview.mcc.osc_mcc.clock              20000                       # Clock period in ticks (Tick)
testsys.realview.mcc.osc_peripheral.clock        41667                       # Clock period in ticks (Tick)
testsys.realview.mcc.osc_system_bus.clock        41667                       # Clock period in ticks (Tick)
testsys.realview.non_trusted_sram.power_state.pwrStateResidencyTicks::UNDEFINED 569178986250                       # Cumulative time (in ticks) in various power states (Tick)
testsys.realview.pci_host.power_state.pwrStateResidencyTicks::UNDEFINED 569178986250                       # Cumulative time (in ticks) in various power states (Tick)
testsys.realview.pwr_ctrl.power_state.pwrStateResidencyTicks::UNDEFINED 569178986250                       # Cumulative time (in ticks) in various power states (Tick)
testsys.realview.realview_io.power_state.pwrStateResidencyTicks::UNDEFINED 569178986250                       # Cumulative time (in ticks) in various power states (Tick)
testsys.realview.rtc.power_state.pwrStateResidencyTicks::UNDEFINED 569178986250                       # Cumulative time (in ticks) in various power states (Tick)
testsys.realview.system_watchdog.power_state.pwrStateResidencyTicks::UNDEFINED 569178986250                       # Cumulative time (in ticks) in various power states (Tick)
testsys.realview.trusted_sram.power_state.pwrStateResidencyTicks::UNDEFINED 569178986250                       # Cumulative time (in ticks) in various power states (Tick)
testsys.realview.trusted_watchdog.power_state.pwrStateResidencyTicks::UNDEFINED 569178986250                       # Cumulative time (in ticks) in various power states (Tick)
testsys.realview.uart0.power_state.pwrStateResidencyTicks::UNDEFINED 569178986250                       # Cumulative time (in ticks) in various power states (Tick)
testsys.realview.uart1.power_state.pwrStateResidencyTicks::UNDEFINED 569178986250                       # Cumulative time (in ticks) in various power states (Tick)
testsys.realview.uart2.power_state.pwrStateResidencyTicks::UNDEFINED 569178986250                       # Cumulative time (in ticks) in various power states (Tick)
testsys.realview.uart3.power_state.pwrStateResidencyTicks::UNDEFINED 569178986250                       # Cumulative time (in ticks) in various power states (Tick)
testsys.realview.vgic.power_state.pwrStateResidencyTicks::UNDEFINED 569178986250                       # Cumulative time (in ticks) in various power states (Tick)
testsys.realview.vio0.power_state.pwrStateResidencyTicks::UNDEFINED 569178986250                       # Cumulative time (in ticks) in various power states (Tick)
testsys.realview.vio1.power_state.pwrStateResidencyTicks::UNDEFINED 569178986250                       # Cumulative time (in ticks) in various power states (Tick)
testsys.realview.vram.power_state.pwrStateResidencyTicks::UNDEFINED 569178986250                       # Cumulative time (in ticks) in various power states (Tick)
testsys.realview.watchdog.power_state.pwrStateResidencyTicks::UNDEFINED 569178986250                       # Cumulative time (in ticks) in various power states (Tick)
testsys.voltage_domain.voltage                      1                       # Voltage in Volts (Volt)
testsys.workload.inst.arm                           0                       # number of arm instructions executed (Count)
testsys.workload.inst.quiesce                    1565                       # number of quiesce instructions executed (Count)

---------- End Simulation Statistics   ----------
