
---------- Begin Simulation Statistics ----------
simSeconds                                   0.259090                       # Number of seconds simulated (Second)
simTicks                                 259090451199                       # Number of ticks simulated (Tick)
finalTick                                11924729825176                       # Number of ticks from beginning of simulation (restored from checkpoints and never reset) (Tick)
simFreq                                  1000000000000                       # The number of ticks per simulated second ((Tick/Second))
hostSeconds                                   8805.45                       # Real time elapsed on the host (Second)
hostTickRate                                 29423887                       # The number of ticks simulated per host second (ticks/s) ((Tick/Second))
hostMemory                                    4124936                       # Number of bytes of host memory used (Byte)
simInsts                                   5103407026                       # Number of instructions simulated (Count)
simOps                                     6079496044                       # Number of ops (including micro ops) simulated (Count)
hostInstRate                                   579574                       # Simulator instruction rate (inst/s) ((Count/Second))
hostOpRate                                     690425                       # Simulator op (including micro ops) rate (op/s) ((Count/Second))
system.cache_hierarchy.ruby_system.delayHistogram::bucket_size          128                       # delay histogram for all message (Unspecified)
system.cache_hierarchy.ruby_system.delayHistogram::max_bucket         1279                       # delay histogram for all message (Unspecified)
system.cache_hierarchy.ruby_system.delayHistogram::samples    139080200                       # delay histogram for all message (Unspecified)
system.cache_hierarchy.ruby_system.delayHistogram::mean     0.185287                       # delay histogram for all message (Unspecified)
system.cache_hierarchy.ruby_system.delayHistogram::stdev     1.236102                       # delay histogram for all message (Unspecified)
system.cache_hierarchy.ruby_system.delayHistogram |   139080011    100.00%    100.00% |         188      0.00%    100.00% |           0      0.00%    100.00% |           0      0.00%    100.00% |           0      0.00%    100.00% |           0      0.00%    100.00% |           0      0.00%    100.00% |           0      0.00%    100.00% |           0      0.00%    100.00% |           1      0.00%    100.00% # delay histogram for all message (Unspecified)
system.cache_hierarchy.ruby_system.delayHistogram::total    139080200                       # delay histogram for all message (Unspecified)
system.cache_hierarchy.ruby_system.m_outstandReqHistSeqr::bucket_size            2                       (Unspecified)
system.cache_hierarchy.ruby_system.m_outstandReqHistSeqr::max_bucket           19                       (Unspecified)
system.cache_hierarchy.ruby_system.m_outstandReqHistSeqr::samples    646878590                       (Unspecified)
system.cache_hierarchy.ruby_system.m_outstandReqHistSeqr::mean     4.060615                       (Unspecified)
system.cache_hierarchy.ruby_system.m_outstandReqHistSeqr::gmean     2.962123                       (Unspecified)
system.cache_hierarchy.ruby_system.m_outstandReqHistSeqr::stdev     3.353442                       (Unspecified)
system.cache_hierarchy.ruby_system.m_outstandReqHistSeqr |   160252571     24.77%     24.77% |   186093153     28.77%     53.54% |   139050425     21.50%     75.04% |    81873664     12.66%     87.69% |    32593301      5.04%     92.73% |    13320884      2.06%     94.79% |    12357600      1.91%     96.70% |    11677674      1.81%     98.51% |     9659318      1.49%    100.00% |           0      0.00%    100.00% (Unspecified)
system.cache_hierarchy.ruby_system.m_outstandReqHistSeqr::total    646878590                       (Unspecified)
system.cache_hierarchy.ruby_system.m_latencyHistSeqr::bucket_size          256                       (Unspecified)
system.cache_hierarchy.ruby_system.m_latencyHistSeqr::max_bucket         2559                       (Unspecified)
system.cache_hierarchy.ruby_system.m_latencyHistSeqr::samples    647051202                       (Unspecified)
system.cache_hierarchy.ruby_system.m_latencyHistSeqr::mean     4.449708                       (Unspecified)
system.cache_hierarchy.ruby_system.m_latencyHistSeqr::gmean     1.153813                       (Unspecified)
system.cache_hierarchy.ruby_system.m_latencyHistSeqr::stdev    27.552679                       (Unspecified)
system.cache_hierarchy.ruby_system.m_latencyHistSeqr |   646808431     99.96%     99.96% |      117388      0.02%     99.98% |         600      0.00%     99.98% |        2947      0.00%     99.98% |      116582      0.02%    100.00% |        5197      0.00%    100.00% |          57      0.00%    100.00% |           0      0.00%    100.00% |           0      0.00%    100.00% |           0      0.00%    100.00% (Unspecified)
system.cache_hierarchy.ruby_system.m_latencyHistSeqr::total    647051202                       (Unspecified)
system.cache_hierarchy.ruby_system.m_hitLatencyHistSeqr::bucket_size          256                       (Unspecified)
system.cache_hierarchy.ruby_system.m_hitLatencyHistSeqr::max_bucket         2559                       (Unspecified)
system.cache_hierarchy.ruby_system.m_hitLatencyHistSeqr::samples    623865892                       (Unspecified)
system.cache_hierarchy.ruby_system.m_hitLatencyHistSeqr::mean     1.002272                       (Unspecified)
system.cache_hierarchy.ruby_system.m_hitLatencyHistSeqr::gmean     1.001331                       (Unspecified)
system.cache_hierarchy.ruby_system.m_hitLatencyHistSeqr::stdev     0.314217                       (Unspecified)
system.cache_hierarchy.ruby_system.m_hitLatencyHistSeqr |   623865661    100.00%    100.00% |         221      0.00%    100.00% |           0      0.00%    100.00% |           0      0.00%    100.00% |           9      0.00%    100.00% |           1      0.00%    100.00% |           0      0.00%    100.00% |           0      0.00%    100.00% |           0      0.00%    100.00% |           0      0.00%    100.00% (Unspecified)
system.cache_hierarchy.ruby_system.m_hitLatencyHistSeqr::total    623865892                       (Unspecified)
system.cache_hierarchy.ruby_system.m_missLatencyHistSeqr::bucket_size          256                       (Unspecified)
system.cache_hierarchy.ruby_system.m_missLatencyHistSeqr::max_bucket         2559                       (Unspecified)
system.cache_hierarchy.ruby_system.m_missLatencyHistSeqr::samples     23185310                       (Unspecified)
system.cache_hierarchy.ruby_system.m_missLatencyHistSeqr::mean    97.212638                       (Unspecified)
system.cache_hierarchy.ruby_system.m_missLatencyHistSeqr::gmean    52.302734                       (Unspecified)
system.cache_hierarchy.ruby_system.m_missLatencyHistSeqr::stdev   110.719486                       (Unspecified)
system.cache_hierarchy.ruby_system.m_missLatencyHistSeqr |    22942770     98.95%     98.95% |      117167      0.51%     99.46% |         600      0.00%     99.46% |        2947      0.01%     99.47% |      116573      0.50%     99.98% |        5196      0.02%    100.00% |          57      0.00%    100.00% |           0      0.00%    100.00% |           0      0.00%    100.00% |           0      0.00%    100.00% (Unspecified)
system.cache_hierarchy.ruby_system.m_missLatencyHistSeqr::total     23185310                       (Unspecified)
system.cache_hierarchy.ruby_system.delayVCHist.vnet_0::bucket_size          128                       # delay histogram for vnet_0 (Unspecified)
system.cache_hierarchy.ruby_system.delayVCHist.vnet_0::max_bucket         1279                       # delay histogram for vnet_0 (Unspecified)
system.cache_hierarchy.ruby_system.delayVCHist.vnet_0::samples     63666107                       # delay histogram for vnet_0 (Unspecified)
system.cache_hierarchy.ruby_system.delayVCHist.vnet_0::mean     0.174052                       # delay histogram for vnet_0 (Unspecified)
system.cache_hierarchy.ruby_system.delayVCHist.vnet_0::stdev     1.222419                       # delay histogram for vnet_0 (Unspecified)
system.cache_hierarchy.ruby_system.delayVCHist.vnet_0 |    63665918    100.00%    100.00% |         188      0.00%    100.00% |           0      0.00%    100.00% |           0      0.00%    100.00% |           0      0.00%    100.00% |           0      0.00%    100.00% |           0      0.00%    100.00% |           0      0.00%    100.00% |           0      0.00%    100.00% |           1      0.00%    100.00% # delay histogram for vnet_0 (Unspecified)
system.cache_hierarchy.ruby_system.delayVCHist.vnet_0::total     63666107                       # delay histogram for vnet_0 (Unspecified)
system.cache_hierarchy.ruby_system.delayVCHist.vnet_1::bucket_size           16                       # delay histogram for vnet_1 (Unspecified)
system.cache_hierarchy.ruby_system.delayVCHist.vnet_1::max_bucket          159                       # delay histogram for vnet_1 (Unspecified)
system.cache_hierarchy.ruby_system.delayVCHist.vnet_1::samples     70407836                       # delay histogram for vnet_1 (Unspecified)
system.cache_hierarchy.ruby_system.delayVCHist.vnet_1::mean     0.208548                       # delay histogram for vnet_1 (Unspecified)
system.cache_hierarchy.ruby_system.delayVCHist.vnet_1::stdev     1.289881                       # delay histogram for vnet_1 (Unspecified)
system.cache_hierarchy.ruby_system.delayVCHist.vnet_1 |    70388524     99.97%     99.97% |        7603      0.01%     99.98% |        5614      0.01%     99.99% |        5441      0.01%    100.00% |         442      0.00%    100.00% |         186      0.00%    100.00% |          26      0.00%    100.00% |           0      0.00%    100.00% |           0      0.00%    100.00% |           0      0.00%    100.00% # delay histogram for vnet_1 (Unspecified)
system.cache_hierarchy.ruby_system.delayVCHist.vnet_1::total     70407836                       # delay histogram for vnet_1 (Unspecified)
system.cache_hierarchy.ruby_system.delayVCHist.vnet_2::bucket_size            1                       # delay histogram for vnet_2 (Unspecified)
system.cache_hierarchy.ruby_system.delayVCHist.vnet_2::max_bucket            9                       # delay histogram for vnet_2 (Unspecified)
system.cache_hierarchy.ruby_system.delayVCHist.vnet_2::samples      5006257                       # delay histogram for vnet_2 (Unspecified)
system.cache_hierarchy.ruby_system.delayVCHist.vnet_2::mean     0.001029                       # delay histogram for vnet_2 (Unspecified)
system.cache_hierarchy.ruby_system.delayVCHist.vnet_2::stdev     0.045426                       # delay histogram for vnet_2 (Unspecified)
system.cache_hierarchy.ruby_system.delayVCHist.vnet_2 |     5003685     99.95%     99.95% |           0      0.00%     99.95% |        2568      0.05%    100.00% |           0      0.00%    100.00% |           4      0.00%    100.00% |           0      0.00%    100.00% |           0      0.00%    100.00% |           0      0.00%    100.00% |           0      0.00%    100.00% |           0      0.00%    100.00% # delay histogram for vnet_2 (Unspecified)
system.cache_hierarchy.ruby_system.delayVCHist.vnet_2::total      5006257                       # delay histogram for vnet_2 (Unspecified)
system.cache_hierarchy.ruby_system.Directory_Controller.Fetch |     5170086     42.76%     42.76% |     6919788     57.24%    100.00% (Unspecified)
system.cache_hierarchy.ruby_system.Directory_Controller.Fetch::total     12089874                       (Unspecified)
system.cache_hierarchy.ruby_system.Directory_Controller.Data |      112619     50.82%     50.82% |      108972     49.18%    100.00% (Unspecified)
system.cache_hierarchy.ruby_system.Directory_Controller.Data::total       221591                       (Unspecified)
system.cache_hierarchy.ruby_system.Directory_Controller.Memory_Data |     5170087     42.76%     42.76% |     6919788     57.24%    100.00% (Unspecified)
system.cache_hierarchy.ruby_system.Directory_Controller.Memory_Data::total     12089875                       (Unspecified)
system.cache_hierarchy.ruby_system.Directory_Controller.Memory_Ack |      113003     50.82%     50.82% |      109356     49.18%    100.00% (Unspecified)
system.cache_hierarchy.ruby_system.Directory_Controller.Memory_Ack::total       222359                       (Unspecified)
system.cache_hierarchy.ruby_system.Directory_Controller.DMA_READ |           3    100.00%    100.00% |           0      0.00%    100.00% (Unspecified)
system.cache_hierarchy.ruby_system.Directory_Controller.DMA_READ::total            3                       (Unspecified)
system.cache_hierarchy.ruby_system.Directory_Controller.DMA_WRITE |         384     50.00%     50.00% |         384     50.00%    100.00% (Unspecified)
system.cache_hierarchy.ruby_system.Directory_Controller.DMA_WRITE::total          768                       (Unspecified)
system.cache_hierarchy.ruby_system.Directory_Controller.CleanReplacement |     5053371     42.61%     42.61% |     6806720     57.39%    100.00% (Unspecified)
system.cache_hierarchy.ruby_system.Directory_Controller.CleanReplacement::total     11860091                       (Unspecified)
system.cache_hierarchy.ruby_system.Directory_Controller.I.Fetch |     5170086     42.76%     42.76% |     6919788     57.24%    100.00% (Unspecified)
system.cache_hierarchy.ruby_system.Directory_Controller.I.Fetch::total     12089874                       (Unspecified)
system.cache_hierarchy.ruby_system.Directory_Controller.I.DMA_READ |           1    100.00%    100.00% |           0      0.00%    100.00% (Unspecified)
system.cache_hierarchy.ruby_system.Directory_Controller.I.DMA_READ::total            1                       (Unspecified)
system.cache_hierarchy.ruby_system.Directory_Controller.I.DMA_WRITE |         384     50.00%     50.00% |         384     50.00%    100.00% (Unspecified)
system.cache_hierarchy.ruby_system.Directory_Controller.I.DMA_WRITE::total          768                       (Unspecified)
system.cache_hierarchy.ruby_system.Directory_Controller.ID.Memory_Data |           1    100.00%    100.00% |           0      0.00%    100.00% (Unspecified)
system.cache_hierarchy.ruby_system.Directory_Controller.ID.Memory_Data::total            1                       (Unspecified)
system.cache_hierarchy.ruby_system.Directory_Controller.ID_W.Memory_Ack |         384     50.00%     50.00% |         384     50.00%    100.00% (Unspecified)
system.cache_hierarchy.ruby_system.Directory_Controller.ID_W.Memory_Ack::total          768                       (Unspecified)
system.cache_hierarchy.ruby_system.Directory_Controller.M.Data |      112617     50.82%     50.82% |      108972     49.18%    100.00% (Unspecified)
system.cache_hierarchy.ruby_system.Directory_Controller.M.Data::total       221589                       (Unspecified)
system.cache_hierarchy.ruby_system.Directory_Controller.M.DMA_READ |           2    100.00%    100.00% |           0      0.00%    100.00% (Unspecified)
system.cache_hierarchy.ruby_system.Directory_Controller.M.DMA_READ::total            2                       (Unspecified)
system.cache_hierarchy.ruby_system.Directory_Controller.M.CleanReplacement |     5053371     42.61%     42.61% |     6806720     57.39%    100.00% (Unspecified)
system.cache_hierarchy.ruby_system.Directory_Controller.M.CleanReplacement::total     11860091                       (Unspecified)
system.cache_hierarchy.ruby_system.Directory_Controller.IM.Memory_Data |     5170086     42.76%     42.76% |     6919788     57.24%    100.00% (Unspecified)
system.cache_hierarchy.ruby_system.Directory_Controller.IM.Memory_Data::total     12089874                       (Unspecified)
system.cache_hierarchy.ruby_system.Directory_Controller.MI.Memory_Ack |      112617     50.82%     50.82% |      108972     49.18%    100.00% (Unspecified)
system.cache_hierarchy.ruby_system.Directory_Controller.MI.Memory_Ack::total       221589                       (Unspecified)
system.cache_hierarchy.ruby_system.Directory_Controller.M_DRD.Data |           2    100.00%    100.00% |           0      0.00%    100.00% (Unspecified)
system.cache_hierarchy.ruby_system.Directory_Controller.M_DRD.Data::total            2                       (Unspecified)
system.cache_hierarchy.ruby_system.Directory_Controller.M_DRDI.Memory_Ack |           2    100.00%    100.00% |           0      0.00%    100.00% (Unspecified)
system.cache_hierarchy.ruby_system.Directory_Controller.M_DRDI.Memory_Ack::total            2                       (Unspecified)
system.cache_hierarchy.ruby_system.DMA_Controller.ReadRequest |           3    100.00%    100.00% |           0      0.00%    100.00% (Unspecified)
system.cache_hierarchy.ruby_system.DMA_Controller.ReadRequest::total            3                       (Unspecified)
system.cache_hierarchy.ruby_system.DMA_Controller.WriteRequest |         768    100.00%    100.00% |           0      0.00%    100.00% (Unspecified)
system.cache_hierarchy.ruby_system.DMA_Controller.WriteRequest::total          768                       (Unspecified)
system.cache_hierarchy.ruby_system.DMA_Controller.Data |           3    100.00%    100.00% |           0      0.00%    100.00% (Unspecified)
system.cache_hierarchy.ruby_system.DMA_Controller.Data::total            3                       (Unspecified)
system.cache_hierarchy.ruby_system.DMA_Controller.Ack |         768    100.00%    100.00% |           0      0.00%    100.00% (Unspecified)
system.cache_hierarchy.ruby_system.DMA_Controller.Ack::total          768                       (Unspecified)
system.cache_hierarchy.ruby_system.DMA_Controller.READY.ReadRequest |           3    100.00%    100.00% |           0      0.00%    100.00% (Unspecified)
system.cache_hierarchy.ruby_system.DMA_Controller.READY.ReadRequest::total            3                       (Unspecified)
system.cache_hierarchy.ruby_system.DMA_Controller.READY.WriteRequest |         768    100.00%    100.00% |           0      0.00%    100.00% (Unspecified)
system.cache_hierarchy.ruby_system.DMA_Controller.READY.WriteRequest::total          768                       (Unspecified)
system.cache_hierarchy.ruby_system.DMA_Controller.BUSY_RD.Data |           3    100.00%    100.00% |           0      0.00%    100.00% (Unspecified)
system.cache_hierarchy.ruby_system.DMA_Controller.BUSY_RD.Data::total            3                       (Unspecified)
system.cache_hierarchy.ruby_system.DMA_Controller.BUSY_WR.Ack |         768    100.00%    100.00% |           0      0.00%    100.00% (Unspecified)
system.cache_hierarchy.ruby_system.DMA_Controller.BUSY_WR.Ack::total          768                       (Unspecified)
system.cache_hierarchy.ruby_system.L1Cache_Controller.Load |   247478890     49.80%     49.80% |   249421503     50.20%    100.00% (Unspecified)
system.cache_hierarchy.ruby_system.L1Cache_Controller.Load::total    496900393                       (Unspecified)
system.cache_hierarchy.ruby_system.L1Cache_Controller.Ifetch |    62147333     49.70%     49.70% |    62889752     50.30%    100.00% (Unspecified)
system.cache_hierarchy.ruby_system.L1Cache_Controller.Ifetch::total    125037085                       (Unspecified)
system.cache_hierarchy.ruby_system.L1Cache_Controller.Store |    11835096     47.13%     47.13% |    13278649     52.87%    100.00% (Unspecified)
system.cache_hierarchy.ruby_system.L1Cache_Controller.Store::total     25113745                       (Unspecified)
system.cache_hierarchy.ruby_system.L1Cache_Controller.Inv |     1461320     50.27%     50.27% |     1445590     49.73%    100.00% (Unspecified)
system.cache_hierarchy.ruby_system.L1Cache_Controller.Inv::total      2906910                       (Unspecified)
system.cache_hierarchy.ruby_system.L1Cache_Controller.L1_Replacement |     9621795     50.11%     50.11% |     9580822     49.89%    100.00% (Unspecified)
system.cache_hierarchy.ruby_system.L1Cache_Controller.L1_Replacement::total     19202617                       (Unspecified)
system.cache_hierarchy.ruby_system.L1Cache_Controller.Fwd_GETX |       73465     52.50%     52.50% |       66466     47.50%    100.00% (Unspecified)
system.cache_hierarchy.ruby_system.L1Cache_Controller.Fwd_GETX::total       139931                       (Unspecified)
system.cache_hierarchy.ruby_system.L1Cache_Controller.Fwd_GETS |      967809     49.39%     49.39% |      991607     50.61%    100.00% (Unspecified)
system.cache_hierarchy.ruby_system.L1Cache_Controller.Fwd_GETS::total      1959416                       (Unspecified)
system.cache_hierarchy.ruby_system.L1Cache_Controller.Data |          34     45.33%     45.33% |          41     54.67%    100.00% (Unspecified)
system.cache_hierarchy.ruby_system.L1Cache_Controller.Data::total           75                       (Unspecified)
system.cache_hierarchy.ruby_system.L1Cache_Controller.Data_Exclusive |     9172437     50.01%     50.01% |     9169602     49.99%    100.00% (Unspecified)
system.cache_hierarchy.ruby_system.L1Cache_Controller.Data_Exclusive::total     18342039                       (Unspecified)
system.cache_hierarchy.ruby_system.L1Cache_Controller.DataS_fromL1 |      991607     50.61%     50.61% |      967809     49.39%    100.00% (Unspecified)
system.cache_hierarchy.ruby_system.L1Cache_Controller.DataS_fromL1::total      1959416                       (Unspecified)
system.cache_hierarchy.ruby_system.L1Cache_Controller.Data_all_Acks |      639966     51.30%     51.30% |      607418     48.70%    100.00% (Unspecified)
system.cache_hierarchy.ruby_system.L1Cache_Controller.Data_all_Acks::total      1247384                       (Unspecified)
system.cache_hierarchy.ruby_system.L1Cache_Controller.Ack |      829318     50.68%     50.68% |      807076     49.32%    100.00% (Unspecified)
system.cache_hierarchy.ruby_system.L1Cache_Controller.Ack::total      1636394                       (Unspecified)
system.cache_hierarchy.ruby_system.L1Cache_Controller.Ack_all |      829352     50.68%     50.68% |      807119     49.32%    100.00% (Unspecified)
system.cache_hierarchy.ruby_system.L1Cache_Controller.Ack_all::total      1636471                       (Unspecified)
system.cache_hierarchy.ruby_system.L1Cache_Controller.WB_Ack |     9103180     50.06%     50.06% |     9081462     49.94%    100.00% (Unspecified)
system.cache_hierarchy.ruby_system.L1Cache_Controller.WB_Ack::total     18184642                       (Unspecified)
system.cache_hierarchy.ruby_system.L1Cache_Controller.NP.Load |     9494163     50.15%     50.15% |     9436536     49.85%    100.00% (Unspecified)
system.cache_hierarchy.ruby_system.L1Cache_Controller.NP.Load::total     18930699                       (Unspecified)
system.cache_hierarchy.ruby_system.L1Cache_Controller.NP.Ifetch |       25687     45.87%     45.87% |       30312     54.13%    100.00% (Unspecified)
system.cache_hierarchy.ruby_system.L1Cache_Controller.NP.Ifetch::total        55999                       (Unspecified)
system.cache_hierarchy.ruby_system.L1Cache_Controller.NP.Store |      102969     47.24%     47.24% |      114985     52.76%    100.00% (Unspecified)
system.cache_hierarchy.ruby_system.L1Cache_Controller.NP.Store::total       217954                       (Unspecified)
system.cache_hierarchy.ruby_system.L1Cache_Controller.NP.Inv |      327919     49.89%     49.89% |      329403     50.11%    100.00% (Unspecified)
system.cache_hierarchy.ruby_system.L1Cache_Controller.NP.Inv::total       657322                       (Unspecified)
system.cache_hierarchy.ruby_system.L1Cache_Controller.I.Load |      858122     49.66%     49.66% |      869825     50.34%    100.00% (Unspecified)
system.cache_hierarchy.ruby_system.L1Cache_Controller.I.Load::total      1727947                       (Unspecified)
system.cache_hierarchy.ruby_system.L1Cache_Controller.I.Ifetch |      255406     53.66%     53.66% |      220559     46.34%    100.00% (Unspecified)
system.cache_hierarchy.ruby_system.L1Cache_Controller.I.Ifetch::total       475965                       (Unspecified)
system.cache_hierarchy.ruby_system.L1Cache_Controller.I.Store |       23334     49.86%     49.86% |       23462     50.14%    100.00% (Unspecified)
system.cache_hierarchy.ruby_system.L1Cache_Controller.I.Store::total        46796                       (Unspecified)
system.cache_hierarchy.ruby_system.L1Cache_Controller.I.L1_Replacement |       25631     56.69%     56.69% |       19581     43.31%    100.00% (Unspecified)
system.cache_hierarchy.ruby_system.L1Cache_Controller.I.L1_Replacement::total        45212                       (Unspecified)
system.cache_hierarchy.ruby_system.L1Cache_Controller.S.Load |   152224721     49.96%     49.96% |   152473856     50.04%    100.00% (Unspecified)
system.cache_hierarchy.ruby_system.L1Cache_Controller.S.Load::total    304698577                       (Unspecified)
system.cache_hierarchy.ruby_system.L1Cache_Controller.S.Ifetch |    61866240     49.69%     49.69% |    62638876     50.31%    100.00% (Unspecified)
system.cache_hierarchy.ruby_system.L1Cache_Controller.S.Ifetch::total    124505116                       (Unspecified)
system.cache_hierarchy.ruby_system.L1Cache_Controller.S.Store |      873681     50.50%     50.50% |      856269     49.50%    100.00% (Unspecified)
system.cache_hierarchy.ruby_system.L1Cache_Controller.S.Store::total      1729950                       (Unspecified)
system.cache_hierarchy.ruby_system.L1Cache_Controller.S.Inv |     1061523     50.45%     50.45% |     1042541     49.55%    100.00% (Unspecified)
system.cache_hierarchy.ruby_system.L1Cache_Controller.S.Inv::total      2104064                       (Unspecified)
system.cache_hierarchy.ruby_system.L1Cache_Controller.S.L1_Replacement |      492984     50.68%     50.68% |      479766     49.32%    100.00% (Unspecified)
system.cache_hierarchy.ruby_system.L1Cache_Controller.S.L1_Replacement::total       972750                       (Unspecified)
system.cache_hierarchy.ruby_system.L1Cache_Controller.E.Load |    70612279     49.97%     49.97% |    70696688     50.03%    100.00% (Unspecified)
system.cache_hierarchy.ruby_system.L1Cache_Controller.E.Load::total    141308967                       (Unspecified)
system.cache_hierarchy.ruby_system.L1Cache_Controller.E.Store |       62017     58.31%     58.31% |       44335     41.69%    100.00% (Unspecified)
system.cache_hierarchy.ruby_system.L1Cache_Controller.E.Store::total       106352                       (Unspecified)
system.cache_hierarchy.ruby_system.L1Cache_Controller.E.Inv |       18497     52.31%     52.31% |       16861     47.69%    100.00% (Unspecified)
system.cache_hierarchy.ruby_system.L1Cache_Controller.E.Inv::total        35358                       (Unspecified)
system.cache_hierarchy.ruby_system.L1Cache_Controller.E.L1_Replacement |     8946338     50.05%     50.05% |     8929184     49.95%    100.00% (Unspecified)
system.cache_hierarchy.ruby_system.L1Cache_Controller.E.L1_Replacement::total     17875522                       (Unspecified)
system.cache_hierarchy.ruby_system.L1Cache_Controller.E.Fwd_GETX |         545     58.29%     58.29% |         390     41.71%    100.00% (Unspecified)
system.cache_hierarchy.ruby_system.L1Cache_Controller.E.Fwd_GETX::total          935                       (Unspecified)
system.cache_hierarchy.ruby_system.L1Cache_Controller.E.Fwd_GETS |      144884     44.78%     44.78% |      178643     55.22%    100.00% (Unspecified)
system.cache_hierarchy.ruby_system.L1Cache_Controller.E.Fwd_GETS::total       323527                       (Unspecified)
system.cache_hierarchy.ruby_system.L1Cache_Controller.M.Load |    14289598     47.26%     47.26% |    15944590     52.74%    100.00% (Unspecified)
system.cache_hierarchy.ruby_system.L1Cache_Controller.M.Load::total     30234188                       (Unspecified)
system.cache_hierarchy.ruby_system.L1Cache_Controller.M.Store |    10773095     46.81%     46.81% |    12239597     53.19%    100.00% (Unspecified)
system.cache_hierarchy.ruby_system.L1Cache_Controller.M.Store::total     23012692                       (Unspecified)
system.cache_hierarchy.ruby_system.L1Cache_Controller.M.Inv |        9009     54.28%     54.28% |        7587     45.72%    100.00% (Unspecified)
system.cache_hierarchy.ruby_system.L1Cache_Controller.M.Inv::total        16596                       (Unspecified)
system.cache_hierarchy.ruby_system.L1Cache_Controller.M.L1_Replacement |      156842     50.74%     50.74% |      152278     49.26%    100.00% (Unspecified)
system.cache_hierarchy.ruby_system.L1Cache_Controller.M.L1_Replacement::total       309120                       (Unspecified)
system.cache_hierarchy.ruby_system.L1Cache_Controller.M.Fwd_GETX |       72920     52.46%     52.46% |       66076     47.54%    100.00% (Unspecified)
system.cache_hierarchy.ruby_system.L1Cache_Controller.M.Fwd_GETX::total       138996                       (Unspecified)
system.cache_hierarchy.ruby_system.L1Cache_Controller.M.Fwd_GETS |      822889     50.30%     50.30% |      812918     49.70%    100.00% (Unspecified)
system.cache_hierarchy.ruby_system.L1Cache_Controller.M.Fwd_GETS::total      1635807                       (Unspecified)
system.cache_hierarchy.ruby_system.L1Cache_Controller.IS.Inv |           2    100.00%    100.00% |           0      0.00%    100.00% (Unspecified)
system.cache_hierarchy.ruby_system.L1Cache_Controller.IS.Inv::total            2                       (Unspecified)
system.cache_hierarchy.ruby_system.L1Cache_Controller.IS.L1_Replacement |           0      0.00%      0.00% |          13    100.00%    100.00% (Unspecified)
system.cache_hierarchy.ruby_system.L1Cache_Controller.IS.L1_Replacement::total           13                       (Unspecified)
system.cache_hierarchy.ruby_system.L1Cache_Controller.IS.Data_Exclusive |     9172436     50.01%     50.01% |     9169602     49.99%    100.00% (Unspecified)
system.cache_hierarchy.ruby_system.L1Cache_Controller.IS.Data_Exclusive::total     18342038                       (Unspecified)
system.cache_hierarchy.ruby_system.L1Cache_Controller.IS.DataS_fromL1 |      991607     50.61%     50.61% |      967809     49.39%    100.00% (Unspecified)
system.cache_hierarchy.ruby_system.L1Cache_Controller.IS.DataS_fromL1::total      1959416                       (Unspecified)
system.cache_hierarchy.ruby_system.L1Cache_Controller.IS.Data_all_Acks |      469333     52.78%     52.78% |      419821     47.22%    100.00% (Unspecified)
system.cache_hierarchy.ruby_system.L1Cache_Controller.IS.Data_all_Acks::total       889154                       (Unspecified)
system.cache_hierarchy.ruby_system.L1Cache_Controller.IM.Inv |           0      0.00%      0.00% |           1    100.00%    100.00% (Unspecified)
system.cache_hierarchy.ruby_system.L1Cache_Controller.IM.Inv::total            1                       (Unspecified)
system.cache_hierarchy.ruby_system.L1Cache_Controller.IM.Data |          34     45.33%     45.33% |          41     54.67%    100.00% (Unspecified)
system.cache_hierarchy.ruby_system.L1Cache_Controller.IM.Data::total           75                       (Unspecified)
system.cache_hierarchy.ruby_system.L1Cache_Controller.IM.Data_all_Acks |      170632     47.63%     47.63% |      187597     52.37%    100.00% (Unspecified)
system.cache_hierarchy.ruby_system.L1Cache_Controller.IM.Data_all_Acks::total       358229                       (Unspecified)
system.cache_hierarchy.ruby_system.L1Cache_Controller.SM.Inv |       44363     47.42%     47.42% |       49191     52.58%    100.00% (Unspecified)
system.cache_hierarchy.ruby_system.L1Cache_Controller.SM.Inv::total        93554                       (Unspecified)
system.cache_hierarchy.ruby_system.L1Cache_Controller.SM.Ack |      829318     50.68%     50.68% |      807076     49.32%    100.00% (Unspecified)
system.cache_hierarchy.ruby_system.L1Cache_Controller.SM.Ack::total      1636394                       (Unspecified)
system.cache_hierarchy.ruby_system.L1Cache_Controller.SM.Ack_all |      829352     50.68%     50.68% |      807119     49.32%    100.00% (Unspecified)
system.cache_hierarchy.ruby_system.L1Cache_Controller.SM.Ack_all::total      1636471                       (Unspecified)
system.cache_hierarchy.ruby_system.L1Cache_Controller.IS_I.Data_Exclusive |           1    100.00%    100.00% |           0      0.00%    100.00% (Unspecified)
system.cache_hierarchy.ruby_system.L1Cache_Controller.IS_I.Data_Exclusive::total            1                       (Unspecified)
system.cache_hierarchy.ruby_system.L1Cache_Controller.IS_I.Data_all_Acks |           1    100.00%    100.00% |           0      0.00%    100.00% (Unspecified)
system.cache_hierarchy.ruby_system.L1Cache_Controller.IS_I.Data_all_Acks::total            1                       (Unspecified)
system.cache_hierarchy.ruby_system.L1Cache_Controller.M_I.Load |           7     46.67%     46.67% |           8     53.33%    100.00% (Unspecified)
system.cache_hierarchy.ruby_system.L1Cache_Controller.M_I.Load::total           15                       (Unspecified)
system.cache_hierarchy.ruby_system.L1Cache_Controller.M_I.Ifetch |           0      0.00%      0.00% |           5    100.00%    100.00% (Unspecified)
system.cache_hierarchy.ruby_system.L1Cache_Controller.M_I.Ifetch::total            5                       (Unspecified)
system.cache_hierarchy.ruby_system.L1Cache_Controller.M_I.Store |           0      0.00%      0.00% |           1    100.00%    100.00% (Unspecified)
system.cache_hierarchy.ruby_system.L1Cache_Controller.M_I.Store::total            1                       (Unspecified)
system.cache_hierarchy.ruby_system.L1Cache_Controller.M_I.Inv |           7     53.85%     53.85% |           6     46.15%    100.00% (Unspecified)
system.cache_hierarchy.ruby_system.L1Cache_Controller.M_I.Inv::total           13                       (Unspecified)
system.cache_hierarchy.ruby_system.L1Cache_Controller.M_I.Fwd_GETS |          36     43.90%     43.90% |          46     56.10%    100.00% (Unspecified)
system.cache_hierarchy.ruby_system.L1Cache_Controller.M_I.Fwd_GETS::total           82                       (Unspecified)
system.cache_hierarchy.ruby_system.L1Cache_Controller.M_I.WB_Ack |     9103137     50.06%     50.06% |     9081410     49.94%    100.00% (Unspecified)
system.cache_hierarchy.ruby_system.L1Cache_Controller.M_I.WB_Ack::total     18184547                       (Unspecified)
system.cache_hierarchy.ruby_system.L1Cache_Controller.SINK_WB_ACK.WB_Ack |          43     45.26%     45.26% |          52     54.74%    100.00% (Unspecified)
system.cache_hierarchy.ruby_system.L1Cache_Controller.SINK_WB_ACK.WB_Ack::total           95                       (Unspecified)
system.cache_hierarchy.ruby_system.L2Cache_Controller.L1_GET_INSTR |      276187     51.49%     51.49% |      260173     48.51%    100.00% (Unspecified)
system.cache_hierarchy.ruby_system.L2Cache_Controller.L1_GET_INSTR::total       536360                       (Unspecified)
system.cache_hierarchy.ruby_system.L2Cache_Controller.L1_GETS |    12123179     58.53%     58.53% |     8591215     41.47%    100.00% (Unspecified)
system.cache_hierarchy.ruby_system.L2Cache_Controller.L1_GETS::total     20714394                       (Unspecified)
system.cache_hierarchy.ruby_system.L2Cache_Controller.L1_GETX |      130031     34.24%     34.24% |      249677     65.76%    100.00% (Unspecified)
system.cache_hierarchy.ruby_system.L2Cache_Controller.L1_GETX::total       379708                       (Unspecified)
system.cache_hierarchy.ruby_system.L2Cache_Controller.L1_UPGRADE |       49698      2.84%      2.84% |     1700915     97.16%    100.00% (Unspecified)
system.cache_hierarchy.ruby_system.L2Cache_Controller.L1_UPGRADE::total      1750613                       (Unspecified)
system.cache_hierarchy.ruby_system.L2Cache_Controller.L1_PUTX |    11310239     62.20%     62.20% |     6874472     37.80%    100.00% (Unspecified)
system.cache_hierarchy.ruby_system.L2Cache_Controller.L1_PUTX::total     18184711                       (Unspecified)
system.cache_hierarchy.ruby_system.L2Cache_Controller.L1_PUTX_old |          24     92.31%     92.31% |           2      7.69%    100.00% (Unspecified)
system.cache_hierarchy.ruby_system.L2Cache_Controller.L1_PUTX_old::total           26                       (Unspecified)
system.cache_hierarchy.ruby_system.L2Cache_Controller.L2_Replacement |      104741     50.33%     50.33% |      103354     49.67%    100.00% (Unspecified)
system.cache_hierarchy.ruby_system.L2Cache_Controller.L2_Replacement::total       208095                       (Unspecified)
system.cache_hierarchy.ruby_system.L2Cache_Controller.L2_Replacement_clean |     5061247     42.63%     42.63% |     6812338     57.37%    100.00% (Unspecified)
system.cache_hierarchy.ruby_system.L2Cache_Controller.L2_Replacement_clean::total     11873585                       (Unspecified)
system.cache_hierarchy.ruby_system.L2Cache_Controller.Mem_Data |     5170086     42.76%     42.76% |     6919788     57.24%    100.00% (Unspecified)
system.cache_hierarchy.ruby_system.L2Cache_Controller.Mem_Data::total     12089874                       (Unspecified)
system.cache_hierarchy.ruby_system.L2Cache_Controller.Mem_Ack |     5165990     42.76%     42.76% |     6915692     57.24%    100.00% (Unspecified)
system.cache_hierarchy.ruby_system.L2Cache_Controller.Mem_Ack::total     12081682                       (Unspecified)
system.cache_hierarchy.ruby_system.L2Cache_Controller.WB_Data |       55398      3.35%      3.35% |     1597006     96.65%    100.00% (Unspecified)
system.cache_hierarchy.ruby_system.L2Cache_Controller.WB_Data::total      1652404                       (Unspecified)
system.cache_hierarchy.ruby_system.L2Cache_Controller.WB_Data_clean |      286921     88.66%     88.66% |       36700     11.34%    100.00% (Unspecified)
system.cache_hierarchy.ruby_system.L2Cache_Controller.WB_Data_clean::total       323621                       (Unspecified)
system.cache_hierarchy.ruby_system.L2Cache_Controller.Ack |      417627     73.62%     73.62% |      149639     26.38%    100.00% (Unspecified)
system.cache_hierarchy.ruby_system.L2Cache_Controller.Ack::total       567266                       (Unspecified)
system.cache_hierarchy.ruby_system.L2Cache_Controller.Ack_all |      473631     68.99%     68.99% |      212935     31.01%    100.00% (Unspecified)
system.cache_hierarchy.ruby_system.L2Cache_Controller.Ack_all::total       686566                       (Unspecified)
system.cache_hierarchy.ruby_system.L2Cache_Controller.Unblock |      332751     16.98%     16.98% |     1626665     83.02%    100.00% (Unspecified)
system.cache_hierarchy.ruby_system.L2Cache_Controller.Unblock::total      1959416                       (Unspecified)
system.cache_hierarchy.ruby_system.L2Cache_Controller.Exclusive_Unblock |    11686787     57.47%     57.47% |     8649952     42.53%    100.00% (Unspecified)
system.cache_hierarchy.ruby_system.L2Cache_Controller.Exclusive_Unblock::total     20336739                       (Unspecified)
system.cache_hierarchy.ruby_system.L2Cache_Controller.MEM_Inv |           4    100.00%    100.00% |           0      0.00%    100.00% (Unspecified)
system.cache_hierarchy.ruby_system.L2Cache_Controller.MEM_Inv::total            4                       (Unspecified)
system.cache_hierarchy.ruby_system.L2Cache_Controller.NP.L1_GET_INSTR |      152460     50.91%     50.91% |      147013     49.09%    100.00% (Unspecified)
system.cache_hierarchy.ruby_system.L2Cache_Controller.NP.L1_GET_INSTR::total       299473                       (Unspecified)
system.cache_hierarchy.ruby_system.L2Cache_Controller.NP.L1_GETS |     4949771     42.46%     42.46% |     6708518     57.54%    100.00% (Unspecified)
system.cache_hierarchy.ruby_system.L2Cache_Controller.NP.L1_GETS::total     11658289                       (Unspecified)
system.cache_hierarchy.ruby_system.L2Cache_Controller.NP.L1_GETX |       67855     51.36%     51.36% |       64257     48.64%    100.00% (Unspecified)
system.cache_hierarchy.ruby_system.L2Cache_Controller.NP.L1_GETX::total       132112                       (Unspecified)
system.cache_hierarchy.ruby_system.L2Cache_Controller.NP.L1_PUTX_old |          12     92.31%     92.31% |           1      7.69%    100.00% (Unspecified)
system.cache_hierarchy.ruby_system.L2Cache_Controller.NP.L1_PUTX_old::total           13                       (Unspecified)
system.cache_hierarchy.ruby_system.L2Cache_Controller.SS.L1_GET_INSTR |       69587     52.09%     52.09% |       63994     47.91%    100.00% (Unspecified)
system.cache_hierarchy.ruby_system.L2Cache_Controller.SS.L1_GET_INSTR::total       133581                       (Unspecified)
system.cache_hierarchy.ruby_system.L2Cache_Controller.SS.L1_GETS |      225846     76.92%     76.92% |       67761     23.08%    100.00% (Unspecified)
system.cache_hierarchy.ruby_system.L2Cache_Controller.SS.L1_GETS::total       293607                       (Unspecified)
system.cache_hierarchy.ruby_system.L2Cache_Controller.SS.L1_GETX |          32     41.56%     41.56% |          45     58.44%    100.00% (Unspecified)
system.cache_hierarchy.ruby_system.L2Cache_Controller.SS.L1_GETX::total           77                       (Unspecified)
system.cache_hierarchy.ruby_system.L2Cache_Controller.SS.L1_UPGRADE |       45832      2.80%      2.80% |     1590564     97.20%    100.00% (Unspecified)
system.cache_hierarchy.ruby_system.L2Cache_Controller.SS.L1_UPGRADE::total      1636396                       (Unspecified)
system.cache_hierarchy.ruby_system.L2Cache_Controller.SS.L1_PUTX |          81     98.78%     98.78% |           1      1.22%    100.00% (Unspecified)
system.cache_hierarchy.ruby_system.L2Cache_Controller.SS.L1_PUTX::total           82                       (Unspecified)
system.cache_hierarchy.ruby_system.L2Cache_Controller.SS.L2_Replacement |        4047     46.91%     46.91% |        4581     53.09%    100.00% (Unspecified)
system.cache_hierarchy.ruby_system.L2Cache_Controller.SS.L2_Replacement::total         8628                       (Unspecified)
system.cache_hierarchy.ruby_system.L2Cache_Controller.SS.L2_Replacement_clean |      453973     70.65%     70.65% |      188607     29.35%    100.00% (Unspecified)
system.cache_hierarchy.ruby_system.L2Cache_Controller.SS.L2_Replacement_clean::total       642580                       (Unspecified)
system.cache_hierarchy.ruby_system.L2Cache_Controller.M.L1_GET_INSTR |           1     20.00%     20.00% |           4     80.00%    100.00% (Unspecified)
system.cache_hierarchy.ruby_system.L2Cache_Controller.M.L1_GET_INSTR::total            5                       (Unspecified)
system.cache_hierarchy.ruby_system.L2Cache_Controller.M.L1_GETS |     6585421     98.06%     98.06% |      130121      1.94%    100.00% (Unspecified)
system.cache_hierarchy.ruby_system.L2Cache_Controller.M.L1_GETS::total      6715542                       (Unspecified)
system.cache_hierarchy.ruby_system.L2Cache_Controller.M.L1_GETX |       39707     46.07%     46.07% |       46477     53.93%    100.00% (Unspecified)
system.cache_hierarchy.ruby_system.L2Cache_Controller.M.L1_GETX::total        86184                       (Unspecified)
system.cache_hierarchy.ruby_system.L2Cache_Controller.M.L2_Replacement |       98985     50.42%     50.42% |       97326     49.58%    100.00% (Unspecified)
system.cache_hierarchy.ruby_system.L2Cache_Controller.M.L2_Replacement::total       196311                       (Unspecified)
system.cache_hierarchy.ruby_system.L2Cache_Controller.M.L2_Replacement_clean |     4583806     40.99%     40.99% |     6598390     59.01%    100.00% (Unspecified)
system.cache_hierarchy.ruby_system.L2Cache_Controller.M.L2_Replacement_clean::total     11182196                       (Unspecified)
system.cache_hierarchy.ruby_system.L2Cache_Controller.MT.L1_GETS |      332751     16.98%     16.98% |     1626665     83.02%    100.00% (Unspecified)
system.cache_hierarchy.ruby_system.L2Cache_Controller.MT.L1_GETS::total      1959416                       (Unspecified)
system.cache_hierarchy.ruby_system.L2Cache_Controller.MT.L1_GETX |       18341     13.11%     13.11% |      121590     86.89%    100.00% (Unspecified)
system.cache_hierarchy.ruby_system.L2Cache_Controller.MT.L1_GETX::total       139931                       (Unspecified)
system.cache_hierarchy.ruby_system.L2Cache_Controller.MT.L1_PUTX |    11310077     62.20%     62.20% |     6874470     37.80%    100.00% (Unspecified)
system.cache_hierarchy.ruby_system.L2Cache_Controller.MT.L1_PUTX::total     18184547                       (Unspecified)
system.cache_hierarchy.ruby_system.L2Cache_Controller.MT.L2_Replacement |        1709     54.15%     54.15% |        1447     45.85%    100.00% (Unspecified)
system.cache_hierarchy.ruby_system.L2Cache_Controller.MT.L2_Replacement::total         3156                       (Unspecified)
system.cache_hierarchy.ruby_system.L2Cache_Controller.MT.L2_Replacement_clean |       23468     48.08%     48.08% |       25341     51.92%    100.00% (Unspecified)
system.cache_hierarchy.ruby_system.L2Cache_Controller.MT.L2_Replacement_clean::total        48809                       (Unspecified)
system.cache_hierarchy.ruby_system.L2Cache_Controller.MT.MEM_Inv |           2    100.00%    100.00% |           0      0.00%    100.00% (Unspecified)
system.cache_hierarchy.ruby_system.L2Cache_Controller.MT.MEM_Inv::total            2                       (Unspecified)
system.cache_hierarchy.ruby_system.L2Cache_Controller.M_I.L1_GET_INSTR |        2948     67.14%     67.14% |        1443     32.86%    100.00% (Unspecified)
system.cache_hierarchy.ruby_system.L2Cache_Controller.M_I.L1_GET_INSTR::total         4391                       (Unspecified)
system.cache_hierarchy.ruby_system.L2Cache_Controller.M_I.L1_GETS |        5165     56.63%     56.63% |        3956     43.37%    100.00% (Unspecified)
system.cache_hierarchy.ruby_system.L2Cache_Controller.M_I.L1_GETS::total         9121                       (Unspecified)
system.cache_hierarchy.ruby_system.L2Cache_Controller.M_I.L1_GETX |         406     93.12%     93.12% |          30      6.88%    100.00% (Unspecified)
system.cache_hierarchy.ruby_system.L2Cache_Controller.M_I.L1_GETX::total          436                       (Unspecified)
system.cache_hierarchy.ruby_system.L2Cache_Controller.M_I.Mem_Ack |     5165990     42.76%     42.76% |     6915692     57.24%    100.00% (Unspecified)
system.cache_hierarchy.ruby_system.L2Cache_Controller.M_I.Mem_Ack::total     12081682                       (Unspecified)
system.cache_hierarchy.ruby_system.L2Cache_Controller.MT_I.WB_Data |        1680     54.16%     54.16% |        1422     45.84%    100.00% (Unspecified)
system.cache_hierarchy.ruby_system.L2Cache_Controller.MT_I.WB_Data::total         3102                       (Unspecified)
system.cache_hierarchy.ruby_system.L2Cache_Controller.MT_I.Ack_all |          31     55.36%     55.36% |          25     44.64%    100.00% (Unspecified)
system.cache_hierarchy.ruby_system.L2Cache_Controller.MT_I.Ack_all::total           56                       (Unspecified)
system.cache_hierarchy.ruby_system.L2Cache_Controller.MT_I.MEM_Inv |           2    100.00%    100.00% |           0      0.00%    100.00% (Unspecified)
system.cache_hierarchy.ruby_system.L2Cache_Controller.MT_I.MEM_Inv::total            2                       (Unspecified)
system.cache_hierarchy.ruby_system.L2Cache_Controller.MCT_I.L1_PUTX_old |          12     92.31%     92.31% |           1      7.69%    100.00% (Unspecified)
system.cache_hierarchy.ruby_system.L2Cache_Controller.MCT_I.L1_PUTX_old::total           13                       (Unspecified)
system.cache_hierarchy.ruby_system.L2Cache_Controller.MCT_I.WB_Data |        7876     58.37%     58.37% |        5618     41.63%    100.00% (Unspecified)
system.cache_hierarchy.ruby_system.L2Cache_Controller.MCT_I.WB_Data::total        13494                       (Unspecified)
system.cache_hierarchy.ruby_system.L2Cache_Controller.MCT_I.WB_Data_clean |          12     92.31%     92.31% |           1      7.69%    100.00% (Unspecified)
system.cache_hierarchy.ruby_system.L2Cache_Controller.MCT_I.WB_Data_clean::total           13                       (Unspecified)
system.cache_hierarchy.ruby_system.L2Cache_Controller.MCT_I.Ack_all |       15580     44.13%     44.13% |       19722     55.87%    100.00% (Unspecified)
system.cache_hierarchy.ruby_system.L2Cache_Controller.MCT_I.Ack_all::total        35302                       (Unspecified)
system.cache_hierarchy.ruby_system.L2Cache_Controller.I_I.L1_GET_INSTR |           3     60.00%     60.00% |           2     40.00%    100.00% (Unspecified)
system.cache_hierarchy.ruby_system.L2Cache_Controller.I_I.L1_GET_INSTR::total            5                       (Unspecified)
system.cache_hierarchy.ruby_system.L2Cache_Controller.I_I.L1_GETS |           1     11.11%     11.11% |           8     88.89%    100.00% (Unspecified)
system.cache_hierarchy.ruby_system.L2Cache_Controller.I_I.L1_GETS::total            9                       (Unspecified)
system.cache_hierarchy.ruby_system.L2Cache_Controller.I_I.Ack |      413580     74.03%     74.03% |      145058     25.97%    100.00% (Unspecified)
system.cache_hierarchy.ruby_system.L2Cache_Controller.I_I.Ack::total       558638                       (Unspecified)
system.cache_hierarchy.ruby_system.L2Cache_Controller.I_I.Ack_all |      453973     70.65%     70.65% |      188607     29.35%    100.00% (Unspecified)
system.cache_hierarchy.ruby_system.L2Cache_Controller.I_I.Ack_all::total       642580                       (Unspecified)
system.cache_hierarchy.ruby_system.L2Cache_Controller.S_I.L1_GETS |           1    100.00%    100.00% |           0      0.00%    100.00% (Unspecified)
system.cache_hierarchy.ruby_system.L2Cache_Controller.S_I.L1_GETS::total            1                       (Unspecified)
system.cache_hierarchy.ruby_system.L2Cache_Controller.S_I.Ack |        4047     46.91%     46.91% |        4581     53.09%    100.00% (Unspecified)
system.cache_hierarchy.ruby_system.L2Cache_Controller.S_I.Ack::total         8628                       (Unspecified)
system.cache_hierarchy.ruby_system.L2Cache_Controller.S_I.Ack_all |        4047     46.91%     46.91% |        4581     53.09%    100.00% (Unspecified)
system.cache_hierarchy.ruby_system.L2Cache_Controller.S_I.Ack_all::total         8628                       (Unspecified)
system.cache_hierarchy.ruby_system.L2Cache_Controller.ISS.L1_GETS |       20172     63.45%     63.45% |       11620     36.55%    100.00% (Unspecified)
system.cache_hierarchy.ruby_system.L2Cache_Controller.ISS.L1_GETS::total        31792                       (Unspecified)
system.cache_hierarchy.ruby_system.L2Cache_Controller.ISS.L1_GETX |         509     99.80%     99.80% |           1      0.20%    100.00% (Unspecified)
system.cache_hierarchy.ruby_system.L2Cache_Controller.ISS.L1_GETX::total          510                       (Unspecified)
system.cache_hierarchy.ruby_system.L2Cache_Controller.ISS.Mem_Data |     4929599     42.40%     42.40% |     6696898     57.60%    100.00% (Unspecified)
system.cache_hierarchy.ruby_system.L2Cache_Controller.ISS.Mem_Data::total     11626497                       (Unspecified)
system.cache_hierarchy.ruby_system.L2Cache_Controller.IS.L1_GET_INSTR |       51188     51.75%     51.75% |       47717     48.25%    100.00% (Unspecified)
system.cache_hierarchy.ruby_system.L2Cache_Controller.IS.L1_GET_INSTR::total        98905                       (Unspecified)
system.cache_hierarchy.ruby_system.L2Cache_Controller.IS.Mem_Data |      172632     52.11%     52.11% |      158633     47.89%    100.00% (Unspecified)
system.cache_hierarchy.ruby_system.L2Cache_Controller.IS.Mem_Data::total       331265                       (Unspecified)
system.cache_hierarchy.ruby_system.L2Cache_Controller.IM.L1_GETS |          64    100.00%    100.00% |           0      0.00%    100.00% (Unspecified)
system.cache_hierarchy.ruby_system.L2Cache_Controller.IM.L1_GETS::total           64                       (Unspecified)
system.cache_hierarchy.ruby_system.L2Cache_Controller.IM.L1_GETX |         394     90.99%     90.99% |          39      9.01%    100.00% (Unspecified)
system.cache_hierarchy.ruby_system.L2Cache_Controller.IM.L1_GETX::total          433                       (Unspecified)
system.cache_hierarchy.ruby_system.L2Cache_Controller.IM.Mem_Data |       67855     51.36%     51.36% |       64257     48.64%    100.00% (Unspecified)
system.cache_hierarchy.ruby_system.L2Cache_Controller.IM.Mem_Data::total       132112                       (Unspecified)
system.cache_hierarchy.ruby_system.L2Cache_Controller.SS_MB.L1_GETS |        1425      3.31%      3.31% |       41597     96.69%    100.00% (Unspecified)
system.cache_hierarchy.ruby_system.L2Cache_Controller.SS_MB.L1_GETS::total        43022                       (Unspecified)
system.cache_hierarchy.ruby_system.L2Cache_Controller.SS_MB.L1_GETX |         689      3.86%      3.86% |       17167     96.14%    100.00% (Unspecified)
system.cache_hierarchy.ruby_system.L2Cache_Controller.SS_MB.L1_GETX::total        17856                       (Unspecified)
system.cache_hierarchy.ruby_system.L2Cache_Controller.SS_MB.L1_UPGRADE |        1693      1.81%      1.81% |       91861     98.19%    100.00% (Unspecified)
system.cache_hierarchy.ruby_system.L2Cache_Controller.SS_MB.L1_UPGRADE::total        93554                       (Unspecified)
system.cache_hierarchy.ruby_system.L2Cache_Controller.SS_MB.Exclusive_Unblock |       45864      2.80%      2.80% |     1590609     97.20%    100.00% (Unspecified)
system.cache_hierarchy.ruby_system.L2Cache_Controller.SS_MB.Exclusive_Unblock::total      1636473                       (Unspecified)
system.cache_hierarchy.ruby_system.L2Cache_Controller.MT_MB.L1_GETS |        2562     72.56%     72.56% |         969     27.44%    100.00% (Unspecified)
system.cache_hierarchy.ruby_system.L2Cache_Controller.MT_MB.L1_GETS::total         3531                       (Unspecified)
system.cache_hierarchy.ruby_system.L2Cache_Controller.MT_MB.L1_GETX |        2098     96.73%     96.73% |          71      3.27%    100.00% (Unspecified)
system.cache_hierarchy.ruby_system.L2Cache_Controller.MT_MB.L1_GETX::total         2169                       (Unspecified)
system.cache_hierarchy.ruby_system.L2Cache_Controller.MT_MB.Exclusive_Unblock |    11640923     62.25%     62.25% |     7059343     37.75%    100.00% (Unspecified)
system.cache_hierarchy.ruby_system.L2Cache_Controller.MT_MB.Exclusive_Unblock::total     18700266                       (Unspecified)
system.cache_hierarchy.ruby_system.L2Cache_Controller.MT_IIB.L1_PUTX |          81     98.78%     98.78% |           1      1.22%    100.00% (Unspecified)
system.cache_hierarchy.ruby_system.L2Cache_Controller.MT_IIB.L1_PUTX::total           82                       (Unspecified)
system.cache_hierarchy.ruby_system.L2Cache_Controller.MT_IIB.WB_Data |       45841      2.80%      2.80% |     1589966     97.20%    100.00% (Unspecified)
system.cache_hierarchy.ruby_system.L2Cache_Controller.MT_IIB.WB_Data::total      1635807                       (Unspecified)
system.cache_hierarchy.ruby_system.L2Cache_Controller.MT_IIB.WB_Data_clean |      286908     88.66%     88.66% |       36696     11.34%    100.00% (Unspecified)
system.cache_hierarchy.ruby_system.L2Cache_Controller.MT_IIB.WB_Data_clean::total       323604                       (Unspecified)
system.cache_hierarchy.ruby_system.L2Cache_Controller.MT_IIB.Unblock |           2     40.00%     40.00% |           3     60.00%    100.00% (Unspecified)
system.cache_hierarchy.ruby_system.L2Cache_Controller.MT_IIB.Unblock::total            5                       (Unspecified)
system.cache_hierarchy.ruby_system.L2Cache_Controller.MT_IB.WB_Data |           1    100.00%    100.00% |           0      0.00%    100.00% (Unspecified)
system.cache_hierarchy.ruby_system.L2Cache_Controller.MT_IB.WB_Data::total            1                       (Unspecified)
system.cache_hierarchy.ruby_system.L2Cache_Controller.MT_IB.WB_Data_clean |           1     25.00%     25.00% |           3     75.00%    100.00% (Unspecified)
system.cache_hierarchy.ruby_system.L2Cache_Controller.MT_IB.WB_Data_clean::total            4                       (Unspecified)
system.cache_hierarchy.ruby_system.L2Cache_Controller.MT_SB.L1_UPGRADE |        2173     10.52%     10.52% |       18490     89.48%    100.00% (Unspecified)
system.cache_hierarchy.ruby_system.L2Cache_Controller.MT_SB.L1_UPGRADE::total        20663                       (Unspecified)
system.cache_hierarchy.ruby_system.L2Cache_Controller.MT_SB.Unblock |      332749     16.98%     16.98% |     1626662     83.02%    100.00% (Unspecified)
system.cache_hierarchy.ruby_system.L2Cache_Controller.MT_SB.Unblock::total      1959411                       (Unspecified)
system.cache_hierarchy.ruby_system.RequestType.LD.latency_hist_seqr::bucket_size          256                       (Unspecified)
system.cache_hierarchy.ruby_system.RequestType.LD.latency_hist_seqr::max_bucket         2559                       (Unspecified)
system.cache_hierarchy.ruby_system.RequestType.LD.latency_hist_seqr::samples    496900378                       (Unspecified)
system.cache_hierarchy.ruby_system.RequestType.LD.latency_hist_seqr::mean     5.253314                       (Unspecified)
system.cache_hierarchy.ruby_system.RequestType.LD.latency_hist_seqr::gmean     1.183479                       (Unspecified)
system.cache_hierarchy.ruby_system.RequestType.LD.latency_hist_seqr::stdev    30.758564                       (Unspecified)
system.cache_hierarchy.ruby_system.RequestType.LD.latency_hist_seqr |   496668775     99.95%     99.95% |      110426      0.02%     99.98% |         421      0.00%     99.98% |        2581      0.00%     99.98% |      113088      0.02%    100.00% |        5032      0.00%    100.00% |          55      0.00%    100.00% |           0      0.00%    100.00% |           0      0.00%    100.00% |           0      0.00%    100.00% (Unspecified)
system.cache_hierarchy.ruby_system.RequestType.LD.latency_hist_seqr::total    496900378                       (Unspecified)
system.cache_hierarchy.ruby_system.RequestType.LD.hit_latency_hist_seqr::bucket_size            1                       (Unspecified)
system.cache_hierarchy.ruby_system.RequestType.LD.hit_latency_hist_seqr::max_bucket            9                       (Unspecified)
system.cache_hierarchy.ruby_system.RequestType.LD.hit_latency_hist_seqr::samples    476241732                       (Unspecified)
system.cache_hierarchy.ruby_system.RequestType.LD.hit_latency_hist_seqr::mean     1.001057                       (Unspecified)
system.cache_hierarchy.ruby_system.RequestType.LD.hit_latency_hist_seqr::gmean     1.000733                       (Unspecified)
system.cache_hierarchy.ruby_system.RequestType.LD.hit_latency_hist_seqr::stdev     0.032508                       (Unspecified)
system.cache_hierarchy.ruby_system.RequestType.LD.hit_latency_hist_seqr |           0      0.00%      0.00% |   475738306     99.89%     99.89% |      503306      0.11%    100.00% |         117      0.00%    100.00% |           3      0.00%    100.00% |           0      0.00%    100.00% |           0      0.00%    100.00% |           0      0.00%    100.00% |           0      0.00%    100.00% |           0      0.00%    100.00% (Unspecified)
system.cache_hierarchy.ruby_system.RequestType.LD.hit_latency_hist_seqr::total    476241732                       (Unspecified)
system.cache_hierarchy.ruby_system.RequestType.LD.miss_latency_hist_seqr::bucket_size          256                       (Unspecified)
system.cache_hierarchy.ruby_system.RequestType.LD.miss_latency_hist_seqr::max_bucket         2559                       (Unspecified)
system.cache_hierarchy.ruby_system.RequestType.LD.miss_latency_hist_seqr::samples     20658646                       (Unspecified)
system.cache_hierarchy.ruby_system.RequestType.LD.miss_latency_hist_seqr::mean   103.280164                       (Unspecified)
system.cache_hierarchy.ruby_system.RequestType.LD.miss_latency_hist_seqr::gmean    56.543518                       (Unspecified)
system.cache_hierarchy.ruby_system.RequestType.LD.miss_latency_hist_seqr::stdev   112.827606                       (Unspecified)
system.cache_hierarchy.ruby_system.RequestType.LD.miss_latency_hist_seqr |    20427043     98.88%     98.88% |      110426      0.53%     99.41% |         421      0.00%     99.42% |        2581      0.01%     99.43% |      113088      0.55%     99.98% |        5032      0.02%    100.00% |          55      0.00%    100.00% |           0      0.00%    100.00% |           0      0.00%    100.00% |           0      0.00%    100.00% (Unspecified)
system.cache_hierarchy.ruby_system.RequestType.LD.miss_latency_hist_seqr::total     20658646                       (Unspecified)
system.cache_hierarchy.ruby_system.RequestType.ST.latency_hist_seqr::bucket_size          256                       (Unspecified)
system.cache_hierarchy.ruby_system.RequestType.ST.latency_hist_seqr::max_bucket         2559                       (Unspecified)
system.cache_hierarchy.ruby_system.RequestType.ST.latency_hist_seqr::samples     24714554                       (Unspecified)
system.cache_hierarchy.ruby_system.RequestType.ST.latency_hist_seqr::mean     2.768792                       (Unspecified)
system.cache_hierarchy.ruby_system.RequestType.ST.latency_hist_seqr::gmean     1.287915                       (Unspecified)
system.cache_hierarchy.ruby_system.RequestType.ST.latency_hist_seqr::stdev     9.822868                       (Unspecified)
system.cache_hierarchy.ruby_system.RequestType.ST.latency_hist_seqr |    24713081     99.99%     99.99% |        1096      0.00%    100.00% |          20      0.00%    100.00% |          45      0.00%    100.00% |         300      0.00%    100.00% |          12      0.00%    100.00% |           0      0.00%    100.00% |           0      0.00%    100.00% |           0      0.00%    100.00% |           0      0.00%    100.00% (Unspecified)
system.cache_hierarchy.ruby_system.RequestType.ST.latency_hist_seqr::total     24714554                       (Unspecified)
system.cache_hierarchy.ruby_system.RequestType.ST.hit_latency_hist_seqr::bucket_size          128                       (Unspecified)
system.cache_hierarchy.ruby_system.RequestType.ST.hit_latency_hist_seqr::max_bucket         1279                       (Unspecified)
system.cache_hierarchy.ruby_system.RequestType.ST.hit_latency_hist_seqr::samples     22783602                       (Unspecified)
system.cache_hierarchy.ruby_system.RequestType.ST.hit_latency_hist_seqr::mean     1.029927                       (Unspecified)
system.cache_hierarchy.ruby_system.RequestType.ST.hit_latency_hist_seqr::gmean     1.020203                       (Unspecified)
system.cache_hierarchy.ruby_system.RequestType.ST.hit_latency_hist_seqr::stdev     0.493053                       (Unspecified)
system.cache_hierarchy.ruby_system.RequestType.ST.hit_latency_hist_seqr |    22783505    100.00%    100.00% |          93      0.00%    100.00% |           3      0.00%    100.00% |           0      0.00%    100.00% |           0      0.00%    100.00% |           0      0.00%    100.00% |           0      0.00%    100.00% |           0      0.00%    100.00% |           0      0.00%    100.00% |           1      0.00%    100.00% (Unspecified)
system.cache_hierarchy.ruby_system.RequestType.ST.hit_latency_hist_seqr::total     22783602                       (Unspecified)
system.cache_hierarchy.ruby_system.RequestType.ST.miss_latency_hist_seqr::bucket_size          256                       (Unspecified)
system.cache_hierarchy.ruby_system.RequestType.ST.miss_latency_hist_seqr::max_bucket         2559                       (Unspecified)
system.cache_hierarchy.ruby_system.RequestType.ST.miss_latency_hist_seqr::samples      1930952                       (Unspecified)
system.cache_hierarchy.ruby_system.RequestType.ST.miss_latency_hist_seqr::mean    23.285932                       (Unspecified)
system.cache_hierarchy.ruby_system.RequestType.ST.miss_latency_hist_seqr::gmean    20.135847                       (Unspecified)
system.cache_hierarchy.ruby_system.RequestType.ST.miss_latency_hist_seqr::stdev    27.847381                       (Unspecified)
system.cache_hierarchy.ruby_system.RequestType.ST.miss_latency_hist_seqr |     1929483     99.92%     99.92% |        1093      0.06%     99.98% |          20      0.00%     99.98% |          45      0.00%     99.98% |         299      0.02%    100.00% |          12      0.00%    100.00% |           0      0.00%    100.00% |           0      0.00%    100.00% |           0      0.00%    100.00% |           0      0.00%    100.00% (Unspecified)
system.cache_hierarchy.ruby_system.RequestType.ST.miss_latency_hist_seqr::total      1930952                       (Unspecified)
system.cache_hierarchy.ruby_system.RequestType.IFETCH.latency_hist_seqr::bucket_size          256                       (Unspecified)
system.cache_hierarchy.ruby_system.RequestType.IFETCH.latency_hist_seqr::max_bucket         2559                       (Unspecified)
system.cache_hierarchy.ruby_system.RequestType.IFETCH.latency_hist_seqr::samples    125037080                       (Unspecified)
system.cache_hierarchy.ruby_system.RequestType.IFETCH.latency_hist_seqr::mean     1.570643                       (Unspecified)
system.cache_hierarchy.ruby_system.RequestType.IFETCH.latency_hist_seqr::gmean     1.019179                       (Unspecified)
system.cache_hierarchy.ruby_system.RequestType.IFETCH.latency_hist_seqr::stdev    11.520977                       (Unspecified)
system.cache_hierarchy.ruby_system.RequestType.IFETCH.latency_hist_seqr |   125028909     99.99%     99.99% |        4451      0.00%    100.00% |         158      0.00%    100.00% |         315      0.00%    100.00% |        3111      0.00%    100.00% |         134      0.00%    100.00% |           2      0.00%    100.00% |           0      0.00%    100.00% |           0      0.00%    100.00% |           0      0.00%    100.00% (Unspecified)
system.cache_hierarchy.ruby_system.RequestType.IFETCH.latency_hist_seqr::total    125037080                       (Unspecified)
system.cache_hierarchy.ruby_system.RequestType.IFETCH.hit_latency_hist_seqr::bucket_size            1                       (Unspecified)
system.cache_hierarchy.ruby_system.RequestType.IFETCH.hit_latency_hist_seqr::max_bucket            9                       (Unspecified)
system.cache_hierarchy.ruby_system.RequestType.IFETCH.hit_latency_hist_seqr::samples    124505116                       (Unspecified)
system.cache_hierarchy.ruby_system.RequestType.IFETCH.hit_latency_hist_seqr::mean     1.000027                       (Unspecified)
system.cache_hierarchy.ruby_system.RequestType.IFETCH.hit_latency_hist_seqr::gmean     1.000019                       (Unspecified)
system.cache_hierarchy.ruby_system.RequestType.IFETCH.hit_latency_hist_seqr::stdev     0.005303                       (Unspecified)
system.cache_hierarchy.ruby_system.RequestType.IFETCH.hit_latency_hist_seqr |           0      0.00%      0.00% |   124501758    100.00%    100.00% |        3310      0.00%    100.00% |          48      0.00%    100.00% |           0      0.00%    100.00% |           0      0.00%    100.00% |           0      0.00%    100.00% |           0      0.00%    100.00% |           0      0.00%    100.00% |           0      0.00%    100.00% (Unspecified)
system.cache_hierarchy.ruby_system.RequestType.IFETCH.hit_latency_hist_seqr::total    124505116                       (Unspecified)
system.cache_hierarchy.ruby_system.RequestType.IFETCH.miss_latency_hist_seqr::bucket_size          256                       (Unspecified)
system.cache_hierarchy.ruby_system.RequestType.IFETCH.miss_latency_hist_seqr::max_bucket         2559                       (Unspecified)
system.cache_hierarchy.ruby_system.RequestType.IFETCH.miss_latency_hist_seqr::samples       531964                       (Unspecified)
system.cache_hierarchy.ruby_system.RequestType.IFETCH.miss_latency_hist_seqr::mean   135.122044                       (Unspecified)
system.cache_hierarchy.ruby_system.RequestType.IFETCH.miss_latency_hist_seqr::gmean    86.565840                       (Unspecified)
system.cache_hierarchy.ruby_system.RequestType.IFETCH.miss_latency_hist_seqr::stdev   115.266826                       (Unspecified)
system.cache_hierarchy.ruby_system.RequestType.IFETCH.miss_latency_hist_seqr |      523793     98.46%     98.46% |        4451      0.84%     99.30% |         158      0.03%     99.33% |         315      0.06%     99.39% |        3111      0.58%     99.97% |         134      0.03%    100.00% |           2      0.00%    100.00% |           0      0.00%    100.00% |           0      0.00%    100.00% |           0      0.00%    100.00% (Unspecified)
system.cache_hierarchy.ruby_system.RequestType.IFETCH.miss_latency_hist_seqr::total       531964                       (Unspecified)
system.cache_hierarchy.ruby_system.RequestType.RMW_Read.latency_hist_seqr::bucket_size          256                       (Unspecified)
system.cache_hierarchy.ruby_system.RequestType.RMW_Read.latency_hist_seqr::max_bucket         2559                       (Unspecified)
system.cache_hierarchy.ruby_system.RequestType.RMW_Read.latency_hist_seqr::samples       166586                       (Unspecified)
system.cache_hierarchy.ruby_system.RequestType.RMW_Read.latency_hist_seqr::mean    13.343066                       (Unspecified)
system.cache_hierarchy.ruby_system.RequestType.RMW_Read.latency_hist_seqr::gmean     1.706425                       (Unspecified)
system.cache_hierarchy.ruby_system.RequestType.RMW_Read.latency_hist_seqr::stdev    53.911535                       (Unspecified)
system.cache_hierarchy.ruby_system.RequestType.RMW_Read.latency_hist_seqr |      165336     99.25%     99.25% |        1172      0.70%     99.95% |           0      0.00%     99.95% |           5      0.00%     99.96% |          58      0.03%     99.99% |          15      0.01%    100.00% |           0      0.00%    100.00% |           0      0.00%    100.00% |           0      0.00%    100.00% |           0      0.00%    100.00% (Unspecified)
system.cache_hierarchy.ruby_system.RequestType.RMW_Read.latency_hist_seqr::total       166586                       (Unspecified)
system.cache_hierarchy.ruby_system.RequestType.RMW_Read.hit_latency_hist_seqr::bucket_size          256                       (Unspecified)
system.cache_hierarchy.ruby_system.RequestType.RMW_Read.hit_latency_hist_seqr::max_bucket         2559                       (Unspecified)
system.cache_hierarchy.ruby_system.RequestType.RMW_Read.hit_latency_hist_seqr::samples       151066                       (Unspecified)
system.cache_hierarchy.ruby_system.RequestType.RMW_Read.hit_latency_hist_seqr::mean     2.515331                       (Unspecified)
system.cache_hierarchy.ruby_system.RequestType.RMW_Read.hit_latency_hist_seqr::gmean     1.161932                       (Unspecified)
system.cache_hierarchy.ruby_system.RequestType.RMW_Read.hit_latency_hist_seqr::stdev    19.113075                       (Unspecified)
system.cache_hierarchy.ruby_system.RequestType.RMW_Read.hit_latency_hist_seqr |      150839     99.85%     99.85% |         218      0.14%     99.99% |           0      0.00%     99.99% |           0      0.00%     99.99% |           8      0.01%    100.00% |           1      0.00%    100.00% |           0      0.00%    100.00% |           0      0.00%    100.00% |           0      0.00%    100.00% |           0      0.00%    100.00% (Unspecified)
system.cache_hierarchy.ruby_system.RequestType.RMW_Read.hit_latency_hist_seqr::total       151066                       (Unspecified)
system.cache_hierarchy.ruby_system.RequestType.RMW_Read.miss_latency_hist_seqr::bucket_size          256                       (Unspecified)
system.cache_hierarchy.ruby_system.RequestType.RMW_Read.miss_latency_hist_seqr::max_bucket         2559                       (Unspecified)
system.cache_hierarchy.ruby_system.RequestType.RMW_Read.miss_latency_hist_seqr::samples        15520                       (Unspecified)
system.cache_hierarchy.ruby_system.RequestType.RMW_Read.miss_latency_hist_seqr::mean   118.736276                       (Unspecified)
system.cache_hierarchy.ruby_system.RequestType.RMW_Read.miss_latency_hist_seqr::gmean    71.894167                       (Unspecified)
system.cache_hierarchy.ruby_system.RequestType.RMW_Read.miss_latency_hist_seqr::stdev   124.068320                       (Unspecified)
system.cache_hierarchy.ruby_system.RequestType.RMW_Read.miss_latency_hist_seqr |       14497     93.41%     93.41% |         954      6.15%     99.56% |           0      0.00%     99.56% |           5      0.03%     99.59% |          50      0.32%     99.91% |          14      0.09%    100.00% |           0      0.00%    100.00% |           0      0.00%    100.00% |           0      0.00%    100.00% |           0      0.00%    100.00% (Unspecified)
system.cache_hierarchy.ruby_system.RequestType.RMW_Read.miss_latency_hist_seqr::total        15520                       (Unspecified)
system.cache_hierarchy.ruby_system.RequestType.Locked_RMW_Read.latency_hist_seqr::bucket_size          256                       (Unspecified)
system.cache_hierarchy.ruby_system.RequestType.Locked_RMW_Read.latency_hist_seqr::max_bucket         2559                       (Unspecified)
system.cache_hierarchy.ruby_system.RequestType.Locked_RMW_Read.latency_hist_seqr::samples       116302                       (Unspecified)
system.cache_hierarchy.ruby_system.RequestType.Locked_RMW_Read.latency_hist_seqr::mean    14.256040                       (Unspecified)
system.cache_hierarchy.ruby_system.RequestType.Locked_RMW_Read.latency_hist_seqr::gmean     3.646445                       (Unspecified)
system.cache_hierarchy.ruby_system.RequestType.Locked_RMW_Read.latency_hist_seqr::stdev    39.189088                       (Unspecified)
system.cache_hierarchy.ruby_system.RequestType.Locked_RMW_Read.latency_hist_seqr |      116028     99.76%     99.76% |         243      0.21%     99.97% |           1      0.00%     99.97% |           1      0.00%     99.98% |          25      0.02%    100.00% |           4      0.00%    100.00% |           0      0.00%    100.00% |           0      0.00%    100.00% |           0      0.00%    100.00% |           0      0.00%    100.00% (Unspecified)
system.cache_hierarchy.ruby_system.RequestType.Locked_RMW_Read.latency_hist_seqr::total       116302                       (Unspecified)
system.cache_hierarchy.ruby_system.RequestType.Locked_RMW_Read.hit_latency_hist_seqr::bucket_size            1                       (Unspecified)
system.cache_hierarchy.ruby_system.RequestType.Locked_RMW_Read.hit_latency_hist_seqr::max_bucket            9                       (Unspecified)
system.cache_hierarchy.ruby_system.RequestType.Locked_RMW_Read.hit_latency_hist_seqr::samples        68074                       (Unspecified)
system.cache_hierarchy.ruby_system.RequestType.Locked_RMW_Read.hit_latency_hist_seqr::mean            1                       (Unspecified)
system.cache_hierarchy.ruby_system.RequestType.Locked_RMW_Read.hit_latency_hist_seqr::gmean            1                       (Unspecified)
system.cache_hierarchy.ruby_system.RequestType.Locked_RMW_Read.hit_latency_hist_seqr |           0      0.00%      0.00% |       68074    100.00%    100.00% |           0      0.00%    100.00% |           0      0.00%    100.00% |           0      0.00%    100.00% |           0      0.00%    100.00% |           0      0.00%    100.00% |           0      0.00%    100.00% |           0      0.00%    100.00% |           0      0.00%    100.00% (Unspecified)
system.cache_hierarchy.ruby_system.RequestType.Locked_RMW_Read.hit_latency_hist_seqr::total        68074                       (Unspecified)
system.cache_hierarchy.ruby_system.RequestType.Locked_RMW_Read.miss_latency_hist_seqr::bucket_size          256                       (Unspecified)
system.cache_hierarchy.ruby_system.RequestType.Locked_RMW_Read.miss_latency_hist_seqr::max_bucket         2559                       (Unspecified)
system.cache_hierarchy.ruby_system.RequestType.Locked_RMW_Read.miss_latency_hist_seqr::samples        48228                       (Unspecified)
system.cache_hierarchy.ruby_system.RequestType.Locked_RMW_Read.miss_latency_hist_seqr::mean    32.966990                       (Unspecified)
system.cache_hierarchy.ruby_system.RequestType.Locked_RMW_Read.miss_latency_hist_seqr::gmean    22.643871                       (Unspecified)
system.cache_hierarchy.ruby_system.RequestType.Locked_RMW_Read.miss_latency_hist_seqr::stdev    55.726565                       (Unspecified)
system.cache_hierarchy.ruby_system.RequestType.Locked_RMW_Read.miss_latency_hist_seqr |       47954     99.43%     99.43% |         243      0.50%     99.94% |           1      0.00%     99.94% |           1      0.00%     99.94% |          25      0.05%     99.99% |           4      0.01%    100.00% |           0      0.00%    100.00% |           0      0.00%    100.00% |           0      0.00%    100.00% |           0      0.00%    100.00% (Unspecified)
system.cache_hierarchy.ruby_system.RequestType.Locked_RMW_Read.miss_latency_hist_seqr::total        48228                       (Unspecified)
system.cache_hierarchy.ruby_system.RequestType.Locked_RMW_Write.latency_hist_seqr::bucket_size            1                       (Unspecified)
system.cache_hierarchy.ruby_system.RequestType.Locked_RMW_Write.latency_hist_seqr::max_bucket            9                       (Unspecified)
system.cache_hierarchy.ruby_system.RequestType.Locked_RMW_Write.latency_hist_seqr::samples       116302                       (Unspecified)
system.cache_hierarchy.ruby_system.RequestType.Locked_RMW_Write.latency_hist_seqr::mean            1                       (Unspecified)
system.cache_hierarchy.ruby_system.RequestType.Locked_RMW_Write.latency_hist_seqr::gmean            1                       (Unspecified)
system.cache_hierarchy.ruby_system.RequestType.Locked_RMW_Write.latency_hist_seqr |           0      0.00%      0.00% |      116302    100.00%    100.00% |           0      0.00%    100.00% |           0      0.00%    100.00% |           0      0.00%    100.00% |           0      0.00%    100.00% |           0      0.00%    100.00% |           0      0.00%    100.00% |           0      0.00%    100.00% |           0      0.00%    100.00% (Unspecified)
system.cache_hierarchy.ruby_system.RequestType.Locked_RMW_Write.latency_hist_seqr::total       116302                       (Unspecified)
system.cache_hierarchy.ruby_system.RequestType.Locked_RMW_Write.hit_latency_hist_seqr::bucket_size            1                       (Unspecified)
system.cache_hierarchy.ruby_system.RequestType.Locked_RMW_Write.hit_latency_hist_seqr::max_bucket            9                       (Unspecified)
system.cache_hierarchy.ruby_system.RequestType.Locked_RMW_Write.hit_latency_hist_seqr::samples       116302                       (Unspecified)
system.cache_hierarchy.ruby_system.RequestType.Locked_RMW_Write.hit_latency_hist_seqr::mean            1                       (Unspecified)
system.cache_hierarchy.ruby_system.RequestType.Locked_RMW_Write.hit_latency_hist_seqr::gmean            1                       (Unspecified)
[...]
system.processor.cores3.core.fetch.nisnDist::0    569970681     76.17%     76.17% # Number of instructions fetched each cycle (Total) (Count)
system.processor.cores3.core.fetch.nisnDist::1      8462624      1.13%     77.30% # Number of instructions fetched each cycle (Total) (Count)
system.processor.cores3.core.fetch.nisnDist::2     15325413      2.05%     79.35% # Number of instructions fetched each cycle (Total) (Count)
system.processor.cores3.core.fetch.nisnDist::3      5170561      0.69%     80.04% # Number of instructions fetched each cycle (Total) (Count)
system.processor.cores3.core.fetch.nisnDist::4      4081924      0.55%     80.59% # Number of instructions fetched each cycle (Total) (Count)
system.processor.cores3.core.fetch.nisnDist::5      1709431      0.23%     80.82% # Number of instructions fetched each cycle (Total) (Count)
system.processor.cores3.core.fetch.nisnDist::6     14136569      1.89%     82.71% # Number of instructions fetched each cycle (Total) (Count)
system.processor.cores3.core.fetch.nisnDist::7     15900333      2.12%     84.83% # Number of instructions fetched each cycle (Total) (Count)
system.processor.cores3.core.fetch.nisnDist::8    113510957     15.17%    100.00% # Number of instructions fetched each cycle (Total) (Count)
system.processor.cores3.core.fetch.nisnDist::overflows            0      0.00%    100.00% # Number of instructions fetched each cycle (Total) (Count)
system.processor.cores3.core.fetch.nisnDist::min_value            0                       # Number of instructions fetched each cycle (Total) (Count)
system.processor.cores3.core.fetch.nisnDist::max_value            8                       # Number of instructions fetched each cycle (Total) (Count)
system.processor.cores3.core.fetch.nisnDist::total    748268493                       # Number of instructions fetched each cycle (Total) (Count)
system.processor.cores3.core.fetch.branchRate     0.083683                       # Number of branch fetches per cycle (Ratio)
system.processor.cores3.core.fetch.rate      0.839139                       # Number of inst fetches per cycle ((Count/Cycle))
system.processor.cores3.core.iew.idleCycles            0                       # Number of cycles IEW is idle (Cycle)
system.processor.cores3.core.iew.squashCycles       739043                       # Number of cycles IEW is squashing (Cycle)
system.processor.cores3.core.iew.blockCycles      8314971                       # Number of cycles IEW is blocking (Cycle)
system.processor.cores3.core.iew.unblockCycles    166400985                       # Number of cycles IEW is unblocking (Cycle)
system.processor.cores3.core.iew.dispatchedInsts   1152991433                       # Number of instructions dispatched to IQ (Count)
system.processor.cores3.core.iew.dispSquashedInsts        15338                       # Number of squashed instructions skipped by dispatch (Count)
system.processor.cores3.core.iew.dispLoadInsts    243648903                       # Number of dispatched load instructions (Count)
system.processor.cores3.core.iew.dispStoreInsts     14720118                       # Number of dispatched store instructions (Count)
system.processor.cores3.core.iew.dispNonSpecInsts       263191                       # Number of dispatched non-speculative instructions (Count)
system.processor.cores3.core.iew.iqFullEvents        52051                       # Number of times the IQ has become full, causing a stall (Count)
system.processor.cores3.core.iew.lsqFullEvents    166610634                       # Number of times the LSQ has become full, causing a stall (Count)
system.processor.cores3.core.iew.memOrderViolationEvents        88095                       # Number of memory order violations (Count)
system.processor.cores3.core.iew.predictedTakenIncorrect       256390                       # Number of branches that were predicted taken incorrectly (Count)
system.processor.cores3.core.iew.predictedNotTakenIncorrect        67234                       # Number of branches that were predicted not taken incorrectly (Count)
system.processor.cores3.core.iew.branchMispredicts       323624                       # Number of branch mispredicts detected at execute (Count)
system.processor.cores3.core.iew.instsToCommit   1144156368                       # Cumulative count of insts sent to commit (Count)
system.processor.cores3.core.iew.writebackCount   1142828223                       # Cumulative count of insts written-back (Count)
system.processor.cores3.core.iew.producerInst    726505669                       # Number of instructions producing a value (Count)
system.processor.cores3.core.iew.consumerInst   1131697568                       # Number of instructions consuming a value (Count)
system.processor.cores3.core.iew.wbRate      1.471381                       # Insts written-back per cycle ((Count/Cycle))
system.processor.cores3.core.iew.wbFanout     0.641961                       # Average fanout of values written-back ((Count/Count))
system.processor.cores3.core.lsq0.forwLoads      5314364                       # Number of loads that had data forwarded from stores (Count)
system.processor.cores3.core.lsq0.squashedLoads     16472479                       # Number of loads squashed (Count)
system.processor.cores3.core.lsq0.ignoredResponses          729                       # Number of memory responses ignored because the instruction is squashed (Count)
system.processor.cores3.core.lsq0.memOrderViolation        88095                       # Number of memory ordering violations (Count)
system.processor.cores3.core.lsq0.squashedStores      1605078                       # Number of stores squashed (Count)
system.processor.cores3.core.lsq0.rescheduledLoads      3125020                       # Number of loads that were rescheduled (Count)
system.processor.cores3.core.lsq0.blockedByCache      3635725                       # Number of times an access to memory failed due to the cache being blocked (Count)
system.processor.cores3.core.lsq0.loadToUse::samples    216507514                       # Distribution of cycle latency between the first time a load is issued and its completion (Unspecified)
system.processor.cores3.core.lsq0.loadToUse::mean    19.047575                       # Distribution of cycle latency between the first time a load is issued and its completion (Unspecified)
system.processor.cores3.core.lsq0.loadToUse::stdev    54.839992                       # Distribution of cycle latency between the first time a load is issued and its completion (Unspecified)
system.processor.cores3.core.lsq0.loadToUse::0-9    174287630     80.50%     80.50% # Distribution of cycle latency between the first time a load is issued and its completion (Unspecified)
system.processor.cores3.core.lsq0.loadToUse::10-19     13844513      6.39%     86.89% # Distribution of cycle latency between the first time a load is issued and its completion (Unspecified)
system.processor.cores3.core.lsq0.loadToUse::20-29      4136616      1.91%     88.80% # Distribution of cycle latency between the first time a load is issued and its completion (Unspecified)
system.processor.cores3.core.lsq0.loadToUse::30-39      1255915      0.58%     89.38% # Distribution of cycle latency between the first time a load is issued and its completion (Unspecified)
system.processor.cores3.core.lsq0.loadToUse::40-49      1065203      0.49%     89.88% # Distribution of cycle latency between the first time a load is issued and its completion (Unspecified)
system.processor.cores3.core.lsq0.loadToUse::50-59      1851911      0.86%     90.73% # Distribution of cycle latency between the first time a load is issued and its completion (Unspecified)
system.processor.cores3.core.lsq0.loadToUse::60-69      1000550      0.46%     91.19% # Distribution of cycle latency between the first time a load is issued and its completion (Unspecified)
system.processor.cores3.core.lsq0.loadToUse::70-79      1140032      0.53%     91.72% # Distribution of cycle latency between the first time a load is issued and its completion (Unspecified)
system.processor.cores3.core.lsq0.loadToUse::80-89       878738      0.41%     92.13% # Distribution of cycle latency between the first time a load is issued and its completion (Unspecified)
system.processor.cores3.core.lsq0.loadToUse::90-99       793137      0.37%     92.49% # Distribution of cycle latency between the first time a load is issued and its completion (Unspecified)
system.processor.cores3.core.lsq0.loadToUse::100-109       497696      0.23%     92.72% # Distribution of cycle latency between the first time a load is issued and its completion (Unspecified)
system.processor.cores3.core.lsq0.loadToUse::110-119       594700      0.27%     93.00% # Distribution of cycle latency between the first time a load is issued and its completion (Unspecified)
system.processor.cores3.core.lsq0.loadToUse::120-129       542108      0.25%     93.25% # Distribution of cycle latency between the first time a load is issued and its completion (Unspecified)
system.processor.cores3.core.lsq0.loadToUse::130-139      3130745      1.45%     94.69% # Distribution of cycle latency between the first time a load is issued and its completion (Unspecified)
system.processor.cores3.core.lsq0.loadToUse::140-149      5110991      2.36%     97.05% # Distribution of cycle latency between the first time a load is issued and its completion (Unspecified)
system.processor.cores3.core.lsq0.loadToUse::150-159       531822      0.25%     97.30% # Distribution of cycle latency between the first time a load is issued and its completion (Unspecified)
system.processor.cores3.core.lsq0.loadToUse::160-169       298717      0.14%     97.44% # Distribution of cycle latency between the first time a load is issued and its completion (Unspecified)
system.processor.cores3.core.lsq0.loadToUse::170-179       527583      0.24%     97.68% # Distribution of cycle latency between the first time a load is issued and its completion (Unspecified)
system.processor.cores3.core.lsq0.loadToUse::180-189      2141469      0.99%     98.67% # Distribution of cycle latency between the first time a load is issued and its completion (Unspecified)
system.processor.cores3.core.lsq0.loadToUse::190-199       812528      0.38%     99.05% # Distribution of cycle latency between the first time a load is issued and its completion (Unspecified)
system.processor.cores3.core.lsq0.loadToUse::200-209       193114      0.09%     99.14% # Distribution of cycle latency between the first time a load is issued and its completion (Unspecified)
system.processor.cores3.core.lsq0.loadToUse::210-219       255351      0.12%     99.25% # Distribution of cycle latency between the first time a load is issued and its completion (Unspecified)
system.processor.cores3.core.lsq0.loadToUse::220-229       752797      0.35%     99.60% # Distribution of cycle latency between the first time a load is issued and its completion (Unspecified)
system.processor.cores3.core.lsq0.loadToUse::230-239       345875      0.16%     99.76% # Distribution of cycle latency between the first time a load is issued and its completion (Unspecified)
system.processor.cores3.core.lsq0.loadToUse::240-249        59470      0.03%     99.79% # Distribution of cycle latency between the first time a load is issued and its completion (Unspecified)
system.processor.cores3.core.lsq0.loadToUse::250-259        29535      0.01%     99.80% # Distribution of cycle latency between the first time a load is issued and its completion (Unspecified)
system.processor.cores3.core.lsq0.loadToUse::260-269        18283      0.01%     99.81% # Distribution of cycle latency between the first time a load is issued and its completion (Unspecified)
system.processor.cores3.core.lsq0.loadToUse::270-279        20547      0.01%     99.82% # Distribution of cycle latency between the first time a load is issued and its completion (Unspecified)
system.processor.cores3.core.lsq0.loadToUse::280-289        16826      0.01%     99.83% # Distribution of cycle latency between the first time a load is issued and its completion (Unspecified)
system.processor.cores3.core.lsq0.loadToUse::290-299        15164      0.01%     99.83% # Distribution of cycle latency between the first time a load is issued and its completion (Unspecified)
system.processor.cores3.core.lsq0.loadToUse::overflows       357948      0.17%    100.00% # Distribution of cycle latency between the first time a load is issued and its completion (Unspecified)
system.processor.cores3.core.lsq0.loadToUse::min_value            2                       # Distribution of cycle latency between the first time a load is issued and its completion (Unspecified)
system.processor.cores3.core.lsq0.loadToUse::max_value         2384                       # Distribution of cycle latency between the first time a load is issued and its completion (Unspecified)
system.processor.cores3.core.lsq0.loadToUse::total    216507514                       # Distribution of cycle latency between the first time a load is issued and its completion (Unspecified)
system.processor.cores3.core.mmu.dtb.rdAccesses    267233472                       # TLB accesses on read requests (Count)
system.processor.cores3.core.mmu.dtb.wrAccesses     14279488                       # TLB accesses on write requests (Count)
system.processor.cores3.core.mmu.dtb.rdMisses     16024121                       # TLB misses on read requests (Count)
system.processor.cores3.core.mmu.dtb.wrMisses        78821                       # TLB misses on write requests (Count)
system.processor.cores3.core.mmu.dtb.walker.power_state.pwrStateResidencyTicks::UNDEFINED 11924729825176                       # Cumulative time (in ticks) in various power states (Tick)
system.processor.cores3.core.mmu.itb.rdAccesses            0                       # TLB accesses on read requests (Count)
system.processor.cores3.core.mmu.itb.wrAccesses     62971512                       # TLB accesses on write requests (Count)
system.processor.cores3.core.mmu.itb.rdMisses            0                       # TLB misses on read requests (Count)
system.processor.cores3.core.mmu.itb.wrMisses        48416                       # TLB misses on write requests (Count)
system.processor.cores3.core.mmu.itb.walker.power_state.pwrStateResidencyTicks::UNDEFINED 11924729825176                       # Cumulative time (in ticks) in various power states (Tick)
system.processor.cores3.core.power_state.numTransitions           73                       # Number of power state transitions (Count)
system.processor.cores3.core.power_state.ticksClkGated::samples           37                       # Distribution of time spent in the clock gated state (Tick)
system.processor.cores3.core.power_state.ticksClkGated::mean     12103615                       # Distribution of time spent in the clock gated state (Tick)
system.processor.cores3.core.power_state.ticksClkGated::stdev 16979517.084936                       # Distribution of time spent in the clock gated state (Tick)
system.processor.cores3.core.power_state.ticksClkGated::1000-5e+10           37    100.00%    100.00% # Distribution of time spent in the clock gated state (Tick)
system.processor.cores3.core.power_state.ticksClkGated::min_value       465868                       # Distribution of time spent in the clock gated state (Tick)
system.processor.cores3.core.power_state.ticksClkGated::max_value     66658942                       # Distribution of time spent in the clock gated state (Tick)
system.processor.cores3.core.power_state.ticksClkGated::total           37                       # Distribution of time spent in the clock gated state (Tick)
system.processor.cores3.core.power_state.pwrStateResidencyTicks::ON 256852439082                       # Cumulative time (in ticks) in various power states (Tick)
system.processor.cores3.core.power_state.pwrStateResidencyTicks::CLK_GATED    447833755                       # Cumulative time (in ticks) in various power states (Tick)
system.processor.cores3.core.power_state.pwrStateResidencyTicks::OFF 11667429552339                       # Cumulative time (in ticks) in various power states (Tick)
system.processor.cores3.core.rename.squashCycles       739043                       # Number of cycles rename is squashing (Cycle)
system.processor.cores3.core.rename.idleCycles     68985445                       # Number of cycles rename is idle (Cycle)
system.processor.cores3.core.rename.blockCycles    177981823                       # Number of cycles rename is blocking (Cycle)
system.processor.cores3.core.rename.serializeStallCycles      8322399                       # count of cycles rename stalled for serializing inst (Cycle)
system.processor.cores3.core.rename.runCycles    156916315                       # Number of cycles rename is running (Cycle)
system.processor.cores3.core.rename.unblockCycles    335323468                       # Number of cycles rename is unblocking (Cycle)
system.processor.cores3.core.rename.renamedInsts   1157598246                       # Number of instructions processed by rename (Count)
system.processor.cores3.core.rename.ROBFullEvents       748875                       # Number of times rename has blocked due to ROB full (Count)
system.processor.cores3.core.rename.IQFullEvents      3498020                       # Number of times rename has blocked due to IQ full (Count)
system.processor.cores3.core.rename.LQFullEvents    326276328                       # Number of times rename has blocked due to LQ full (Count)
system.processor.cores3.core.rename.SQFullEvents      2326214                       # Number of times rename has blocked due to SQ full (Count)
system.processor.cores3.core.rename.fullRegistersEvents           10                       # Number of times there has been no free registers (Count)
system.processor.cores3.core.rename.renamedOperands   1620855561                       # Number of destination operands rename has renamed (Count)
system.processor.cores3.core.rename.lookups   3085418233                       # Number of register rename lookups that rename has made (Count)
system.processor.cores3.core.rename.intLookups    802415355                       # Number of integer rename lookups (Count)
system.processor.cores3.core.rename.fpLookups    842091393                       # Number of floating rename lookups (Count)
system.processor.cores3.core.rename.committedMaps   1538704961                       # Number of HB maps that are committed (Count)
system.processor.cores3.core.rename.undoneMaps     82150600                       # Number of HB maps that are undone due to squashing (Count)
system.processor.cores3.core.rename.serializing       151208                       # count of serializing insts renamed (Count)
system.processor.cores3.core.rename.tempSerializing       151705                       # count of temporary serializing insts renamed (Count)
system.processor.cores3.core.rename.skidInsts     90726110                       # count of insts added to the skid buffer (Count)
system.processor.cores3.core.rob.reads     1775820030                       # The number of ROB reads (Count)
system.processor.cores3.core.rob.writes    2304212698                       # The number of ROB writes (Count)
system.processor.cores3.core.thread_0.numInsts    602524313                       # Number of Instructions committed (Count)
system.processor.cores3.core.thread_0.numOps   1094961239                       # Number of Ops committed (Count)
system.processor.cores3.core.thread_0.numMemRefs            0                       # Number of Memory References (Count)
system.workload.inst.arm                            0                       # number of arm instructions executed (Count)
system.workload.inst.quiesce                        0                       # number of quiesce instructions executed (Count)

---------- End Simulation Statistics   ----------
