
---------- Begin Simulation Statistics ----------
simSeconds                                   0.284002                       # Number of seconds simulated (Second)
simTicks                                 284001817250                       # Number of ticks simulated (Tick)
finalTick                                284001817250                       # Number of ticks from beginning of simulation (restored from checkpoints and never reset) (Tick)
simFreq                                  1000000000000                       # The number of ticks per simulated second ((Tick/Second))
hostSeconds                                    176.58                       # Real time elapsed on the host (Second)
hostTickRate                               1608387539                       # The number of ticks simulated per host second (ticks/s) ((Tick/Second))
hostMemory                                    2955664                       # Number of bytes of host memory used (Byte)
simInsts                                    163838903                       # Number of instructions simulated (Count)
simOps                                      178036857                       # Number of ops (including micro ops) simulated (Count)
hostInstRate                                   927869                       # Simulator instruction rate (inst/s) ((Count/Second))
hostOpRate                                    1008276                       # Simulator op (including micro ops) rate (op/s) ((Count/Second))
testsys.clk_domain.clock                         1000                       # Clock period in ticks (Tick)
testsys.cpu_cluster.clk_domain.clock              250                       # Clock period in ticks (Tick)
testsys.cpu_cluster.cpus0.numCycles        1135732089                       # Number of cpu cycles simulated (Cycle)
testsys.cpu_cluster.cpus0.numWorkItemsStarted            0                       # Number of work items this cpu started (Count)
testsys.cpu_cluster.cpus0.numWorkItemsCompleted            0                       # Number of work items this cpu completed (Count)
testsys.cpu_cluster.cpus0.exec_context.thread_0.numInsts    115272263                       # Number of instructions committed (Count)
testsys.cpu_cluster.cpus0.exec_context.thread_0.numOps    124833274                       # Number of ops (including micro ops) committed (Count)
testsys.cpu_cluster.cpus0.exec_context.thread_0.numIntAluAccesses    110300005                       # Number of integer alu accesses (Count)
testsys.cpu_cluster.cpus0.exec_context.thread_0.numFpAluAccesses            0                       # Number of float alu accesses (Count)
testsys.cpu_cluster.cpus0.exec_context.thread_0.numVecAluAccesses            0                       # Number of vector alu accesses (Count)
testsys.cpu_cluster.cpus0.exec_context.thread_0.numCallsReturns      6178405                       # Number of times a function call or return occured (Count)
testsys.cpu_cluster.cpus0.exec_context.thread_0.numCondCtrlInsts     17639212                       # Number of instructions that are conditional controls (Count)
testsys.cpu_cluster.cpus0.exec_context.thread_0.numIntInsts    110300005                       # Number of integer instructions (Count)
testsys.cpu_cluster.cpus0.exec_context.thread_0.numFpInsts            0                       # Number of float instructions (Count)
testsys.cpu_cluster.cpus0.exec_context.thread_0.numVecInsts            0                       # Number of vector instructions (Count)
testsys.cpu_cluster.cpus0.exec_context.thread_0.numIntRegReads    149181650                       # Number of times the integer registers were read (Count)
testsys.cpu_cluster.cpus0.exec_context.thread_0.numIntRegWrites     89220367                       # Number of times the integer registers were written (Count)
testsys.cpu_cluster.cpus0.exec_context.thread_0.numFpRegReads            0                       # Number of times the floating registers were read (Count)
testsys.cpu_cluster.cpus0.exec_context.thread_0.numFpRegWrites            0                       # Number of times the floating registers were written (Count)
testsys.cpu_cluster.cpus0.exec_context.thread_0.numVecRegReads            0                       # Number of times the vector registers were read (Count)
testsys.cpu_cluster.cpus0.exec_context.thread_0.numVecRegWrites            0                       # Number of times the vector registers were written (Count)
testsys.cpu_cluster.cpus0.exec_context.thread_0.numVecPredRegReads            0                       # Number of times the predicate registers were read (Count)
testsys.cpu_cluster.cpus0.exec_context.thread_0.numVecPredRegWrites            0                       # Number of times the predicate registers were written (Count)
testsys.cpu_cluster.cpus0.exec_context.thread_0.numCCRegReads     40861924                       # Number of times the CC registers were read (Count)
testsys.cpu_cluster.cpus0.exec_context.thread_0.numCCRegWrites     39554991                       # Number of times the CC registers were written (Count)
testsys.cpu_cluster.cpus0.exec_context.thread_0.numMemRefs     29725740                       # Number of memory refs (Count)
testsys.cpu_cluster.cpus0.exec_context.thread_0.numLoadInsts     17078456                       # Number of load instructions (Count)
testsys.cpu_cluster.cpus0.exec_context.thread_0.numStoreInsts     12647284                       # Number of store instructions (Count)
testsys.cpu_cluster.cpus0.exec_context.thread_0.numIdleCycles 1010930082.972024                       # Number of idle cycles (Cycle)
testsys.cpu_cluster.cpus0.exec_context.thread_0.numBusyCycles 124802006.027976                       # Number of busy cycles (Cycle)
testsys.cpu_cluster.cpus0.exec_context.thread_0.notIdleFraction     0.109887                       # Percentage of non-idle cycles (Ratio)
testsys.cpu_cluster.cpus0.exec_context.thread_0.idleFraction     0.890113                       # Percentage of idle cycles (Ratio)
testsys.cpu_cluster.cpus0.exec_context.thread_0.numBranches     25652843                       # Number of branches fetched (Count)
testsys.cpu_cluster.cpus0.exec_context.thread_0.statExecutedInstType::No_OpClass        14116      0.01%      0.01% # Class of executed instruction. (Count)
testsys.cpu_cluster.cpus0.exec_context.thread_0.statExecutedInstType::IntAlu     94442783     75.66%     75.67% # Class of executed instruction. (Count)
testsys.cpu_cluster.cpus0.exec_context.thread_0.statExecutedInstType::IntMult       648302      0.52%     76.19% # Class of executed instruction. (Count)
testsys.cpu_cluster.cpus0.exec_context.thread_0.statExecutedInstType::IntDiv         2333      0.00%     76.19% # Class of executed instruction. (Count)
testsys.cpu_cluster.cpus0.exec_context.thread_0.statExecutedInstType::FloatAdd            0      0.00%     76.19% # Class of executed instruction. (Count)
testsys.cpu_cluster.cpus0.exec_context.thread_0.statExecutedInstType::FloatCmp            0      0.00%     76.19% # Class of executed instruction. (Count)
testsys.cpu_cluster.cpus0.exec_context.thread_0.statExecutedInstType::FloatCvt            0      0.00%     76.19% # Class of executed instruction. (Count)
testsys.cpu_cluster.cpus0.exec_context.thread_0.statExecutedInstType::FloatMult            0      0.00%     76.19% # Class of executed instruction. (Count)
testsys.cpu_cluster.cpus0.exec_context.thread_0.statExecutedInstType::FloatMultAcc            0      0.00%     76.19% # Class of executed instruction. (Count)
testsys.cpu_cluster.cpus0.exec_context.thread_0.statExecutedInstType::FloatDiv            0      0.00%     76.19% # Class of executed instruction. (Count)
testsys.cpu_cluster.cpus0.exec_context.thread_0.statExecutedInstType::FloatMisc            0      0.00%     76.19% # Class of executed instruction. (Count)
testsys.cpu_cluster.cpus0.exec_context.thread_0.statExecutedInstType::FloatSqrt            0      0.00%     76.19% # Class of executed instruction. (Count)
testsys.cpu_cluster.cpus0.exec_context.thread_0.statExecutedInstType::SimdAdd            0      0.00%     76.19% # Class of executed instruction. (Count)
testsys.cpu_cluster.cpus0.exec_context.thread_0.statExecutedInstType::SimdAddAcc            0      0.00%     76.19% # Class of executed instruction. (Count)
testsys.cpu_cluster.cpus0.exec_context.thread_0.statExecutedInstType::SimdAlu            0      0.00%     76.19% # Class of executed instruction. (Count)
testsys.cpu_cluster.cpus0.exec_context.thread_0.statExecutedInstType::SimdCmp            0      0.00%     76.19% # Class of executed instruction. (Count)
testsys.cpu_cluster.cpus0.exec_context.thread_0.statExecutedInstType::SimdCvt            0      0.00%     76.19% # Class of executed instruction. (Count)
testsys.cpu_cluster.cpus0.exec_context.thread_0.statExecutedInstType::SimdMisc            0      0.00%     76.19% # Class of executed instruction. (Count)
testsys.cpu_cluster.cpus0.exec_context.thread_0.statExecutedInstType::SimdMult            0      0.00%     76.19% # Class of executed instruction. (Count)
testsys.cpu_cluster.cpus0.exec_context.thread_0.statExecutedInstType::SimdMultAcc            0      0.00%     76.19% # Class of executed instruction. (Count)
testsys.cpu_cluster.cpus0.exec_context.thread_0.statExecutedInstType::SimdShift            0      0.00%     76.19% # Class of executed instruction. (Count)
testsys.cpu_cluster.cpus0.exec_context.thread_0.statExecutedInstType::SimdShiftAcc            0      0.00%     76.19% # Class of executed instruction. (Count)
testsys.cpu_cluster.cpus0.exec_context.thread_0.statExecutedInstType::SimdDiv            0      0.00%     76.19% # Class of executed instruction. (Count)
testsys.cpu_cluster.cpus0.exec_context.thread_0.statExecutedInstType::SimdSqrt            0      0.00%     76.19% # Class of executed instruction. (Count)
testsys.cpu_cluster.cpus0.exec_context.thread_0.statExecutedInstType::SimdFloatAdd            0      0.00%     76.19% # Class of executed instruction. (Count)
testsys.cpu_cluster.cpus0.exec_context.thread_0.statExecutedInstType::SimdFloatAlu            0      0.00%     76.19% # Class of executed instruction. (Count)
testsys.cpu_cluster.cpus0.exec_context.thread_0.statExecutedInstType::SimdFloatCmp            0      0.00%     76.19% # Class of executed instruction. (Count)
testsys.cpu_cluster.cpus0.exec_context.thread_0.statExecutedInstType::SimdFloatCvt            0      0.00%     76.19% # Class of executed instruction. (Count)
testsys.cpu_cluster.cpus0.exec_context.thread_0.statExecutedInstType::SimdFloatDiv            0      0.00%     76.19% # Class of executed instruction. (Count)
testsys.cpu_cluster.cpus0.exec_context.thread_0.statExecutedInstType::SimdFloatMisc            0      0.00%     76.19% # Class of executed instruction. (Count)
testsys.cpu_cluster.cpus0.exec_context.thread_0.statExecutedInstType::SimdFloatMult            0      0.00%     76.19% # Class of executed instruction. (Count)
testsys.cpu_cluster.cpus0.exec_context.thread_0.statExecutedInstType::SimdFloatMultAcc            0      0.00%     76.19% # Class of executed instruction. (Count)
testsys.cpu_cluster.cpus0.exec_context.thread_0.statExecutedInstType::SimdFloatSqrt            0      0.00%     76.19% # Class of executed instruction. (Count)
testsys.cpu_cluster.cpus0.exec_context.thread_0.statExecutedInstType::SimdReduceAdd            0      0.00%     76.19% # Class of executed instruction. (Count)
testsys.cpu_cluster.cpus0.exec_context.thread_0.statExecutedInstType::SimdReduceAlu            0      0.00%     76.19% # Class of executed instruction. (Count)
testsys.cpu_cluster.cpus0.exec_context.thread_0.statExecutedInstType::SimdReduceCmp            0      0.00%     76.19% # Class of executed instruction. (Count)
testsys.cpu_cluster.cpus0.exec_context.thread_0.statExecutedInstType::SimdFloatReduceAdd            0      0.00%     76.19% # Class of executed instruction. (Count)
testsys.cpu_cluster.cpus0.exec_context.thread_0.statExecutedInstType::SimdFloatReduceCmp            0      0.00%     76.19% # Class of executed instruction. (Count)
testsys.cpu_cluster.cpus0.exec_context.thread_0.statExecutedInstType::SimdAes            0      0.00%     76.19% # Class of executed instruction. (Count)
testsys.cpu_cluster.cpus0.exec_context.thread_0.statExecutedInstType::SimdAesMix            0      0.00%     76.19% # Class of executed instruction. (Count)
testsys.cpu_cluster.cpus0.exec_context.thread_0.statExecutedInstType::SimdSha1Hash            0      0.00%     76.19% # Class of executed instruction. (Count)
testsys.cpu_cluster.cpus0.exec_context.thread_0.statExecutedInstType::SimdSha1Hash2            0      0.00%     76.19% # Class of executed instruction. (Count)
testsys.cpu_cluster.cpus0.exec_context.thread_0.statExecutedInstType::SimdSha256Hash            0      0.00%     76.19% # Class of executed instruction. (Count)
testsys.cpu_cluster.cpus0.exec_context.thread_0.statExecutedInstType::SimdSha256Hash2            0      0.00%     76.19% # Class of executed instruction. (Count)
testsys.cpu_cluster.cpus0.exec_context.thread_0.statExecutedInstType::SimdShaSigma2            0      0.00%     76.19% # Class of executed instruction. (Count)
testsys.cpu_cluster.cpus0.exec_context.thread_0.statExecutedInstType::SimdShaSigma3            0      0.00%     76.19% # Class of executed instruction. (Count)
testsys.cpu_cluster.cpus0.exec_context.thread_0.statExecutedInstType::SimdPredAlu            0      0.00%     76.19% # Class of executed instruction. (Count)
testsys.cpu_cluster.cpus0.exec_context.thread_0.statExecutedInstType::MemRead     17078456     13.68%     89.87% # Class of executed instruction. (Count)
testsys.cpu_cluster.cpus0.exec_context.thread_0.statExecutedInstType::MemWrite     12647284     10.13%    100.00% # Class of executed instruction. (Count)
testsys.cpu_cluster.cpus0.exec_context.thread_0.statExecutedInstType::FloatMemRead            0      0.00%    100.00% # Class of executed instruction. (Count)
testsys.cpu_cluster.cpus0.exec_context.thread_0.statExecutedInstType::FloatMemWrite            0      0.00%    100.00% # Class of executed instruction. (Count)
testsys.cpu_cluster.cpus0.exec_context.thread_0.statExecutedInstType::IprAccess            0      0.00%    100.00% # Class of executed instruction. (Count)
testsys.cpu_cluster.cpus0.exec_context.thread_0.statExecutedInstType::InstPrefetch            0      0.00%    100.00% # Class of executed instruction. (Count)
testsys.cpu_cluster.cpus0.exec_context.thread_0.statExecutedInstType::total    124833274                       # Class of executed instruction. (Count)
testsys.cpu_cluster.cpus0.mmu.dtb.instHits            0                       # ITB inst hits (Count)
testsys.cpu_cluster.cpus0.mmu.dtb.instMisses            0                       # ITB inst misses (Count)
testsys.cpu_cluster.cpus0.mmu.dtb.readHits     17055553                       # DTB read hits (Count)
testsys.cpu_cluster.cpus0.mmu.dtb.readMisses        47672                       # DTB read misses (Count)
testsys.cpu_cluster.cpus0.mmu.dtb.writeHits     12505167                       # DTB write hits (Count)
testsys.cpu_cluster.cpus0.mmu.dtb.writeMisses        19998                       # DTB write misses (Count)
testsys.cpu_cluster.cpus0.mmu.dtb.inserts        66912                       # Number of times an entry is inserted into the TLB (Count)
testsys.cpu_cluster.cpus0.mmu.dtb.flushTlb            6                       # Number of times complete TLB was flushed (Count)
testsys.cpu_cluster.cpus0.mmu.dtb.flushTlbMva        47939                       # Number of times TLB was flushed by MVA (Count)
testsys.cpu_cluster.cpus0.mmu.dtb.flushTlbMvaAsid            0                       # Number of times TLB was flushed by MVA & ASID (Count)
testsys.cpu_cluster.cpus0.mmu.dtb.flushTlbAsid            0                       # Number of times TLB was flushed by ASID (Count)
testsys.cpu_cluster.cpus0.mmu.dtb.flushedEntries        47970                       # Number of entries that have been flushed from TLB (Count)
testsys.cpu_cluster.cpus0.mmu.dtb.alignFaults            0                       # Number of TLB faults due to alignment restrictions (Count)
testsys.cpu_cluster.cpus0.mmu.dtb.prefetchFaults          758                       # Number of TLB faults due to prefetch (Count)
testsys.cpu_cluster.cpus0.mmu.dtb.domainFaults            0                       # Number of TLB faults due to domain restrictions (Count)
testsys.cpu_cluster.cpus0.mmu.dtb.permsFaults            0                       # Number of TLB faults due to permissions restrictions (Count)
testsys.cpu_cluster.cpus0.mmu.dtb.readAccesses     17103225                       # DTB read accesses (Count)
testsys.cpu_cluster.cpus0.mmu.dtb.writeAccesses     12525165                       # DTB write accesses (Count)
testsys.cpu_cluster.cpus0.mmu.dtb.instAccesses            0                       # ITB inst accesses (Count)
testsys.cpu_cluster.cpus0.mmu.dtb.hits       29560720                       # Total TLB (inst and data) hits (Count)
testsys.cpu_cluster.cpus0.mmu.dtb.misses        67670                       # Total TLB (inst and data) misses (Count)
testsys.cpu_cluster.cpus0.mmu.dtb.accesses     29628390                       # Total TLB (inst and data) accesses (Count)
testsys.cpu_cluster.cpus0.mmu.dtb_walker.walks        66912                       # Table walker walks requested (Count)
testsys.cpu_cluster.cpus0.mmu.dtb_walker.walksLongDescriptor        66912                       # Table walker walks initiated with long descriptors (Count)
testsys.cpu_cluster.cpus0.mmu.dtb_walker.walkWaitTime::samples        66912                       # Table walker wait (enqueue to first request) latency (Tick)
testsys.cpu_cluster.cpus0.mmu.dtb_walker.walkWaitTime::0        66912    100.00%    100.00% # Table walker wait (enqueue to first request) latency (Tick)
testsys.cpu_cluster.cpus0.mmu.dtb_walker.walkWaitTime::total        66912                       # Table walker wait (enqueue to first request) latency (Tick)
testsys.cpu_cluster.cpus0.mmu.dtb_walker.pendingWalks::samples    121037250                       # Table walker pending requests distribution (Tick)
testsys.cpu_cluster.cpus0.mmu.dtb_walker.pendingWalks::0    121037250    100.00%    100.00% # Table walker pending requests distribution (Tick)
testsys.cpu_cluster.cpus0.mmu.dtb_walker.pendingWalks::total    121037250                       # Table walker pending requests distribution (Tick)
testsys.cpu_cluster.cpus0.mmu.dtb_walker.pageSizes::4KiB        66530     99.43%     99.43% # Table walker page sizes translated (Count)
testsys.cpu_cluster.cpus0.mmu.dtb_walker.pageSizes::2MiB          382      0.57%    100.00% # Table walker page sizes translated (Count)
testsys.cpu_cluster.cpus0.mmu.dtb_walker.pageSizes::total        66912                       # Table walker page sizes translated (Count)
testsys.cpu_cluster.cpus0.mmu.dtb_walker.requestOrigin_Requested::Data        66912                       # Table walker requests started/completed, data/inst (Count)
testsys.cpu_cluster.cpus0.mmu.dtb_walker.requestOrigin_Requested::Inst            0                       # Table walker requests started/completed, data/inst (Count)
testsys.cpu_cluster.cpus0.mmu.dtb_walker.requestOrigin_Requested::total        66912                       # Table walker requests started/completed, data/inst (Count)
testsys.cpu_cluster.cpus0.mmu.dtb_walker.requestOrigin_Completed::Data        66912                       # Table walker requests started/completed, data/inst (Count)
testsys.cpu_cluster.cpus0.mmu.dtb_walker.requestOrigin_Completed::Inst            0                       # Table walker requests started/completed, data/inst (Count)
testsys.cpu_cluster.cpus0.mmu.dtb_walker.requestOrigin_Completed::total        66912                       # Table walker requests started/completed, data/inst (Count)
testsys.cpu_cluster.cpus0.mmu.dtb_walker.requestOrigin::total       133824                       # Table walker requests started/completed, data/inst (Count)
testsys.cpu_cluster.cpus0.mmu.dtb_walker.power_state.pwrStateResidencyTicks::UNDEFINED 284001817250                       # Cumulative time (in ticks) in various power states (Tick)
testsys.cpu_cluster.cpus0.mmu.itb.instHits    114785171                       # ITB inst hits (Count)
testsys.cpu_cluster.cpus0.mmu.itb.instMisses         5513                       # ITB inst misses (Count)
testsys.cpu_cluster.cpus0.mmu.itb.readHits            0                       # DTB read hits (Count)
testsys.cpu_cluster.cpus0.mmu.itb.readMisses            0                       # DTB read misses (Count)
testsys.cpu_cluster.cpus0.mmu.itb.writeHits            0                       # DTB write hits (Count)
testsys.cpu_cluster.cpus0.mmu.itb.writeMisses            0                       # DTB write misses (Count)
testsys.cpu_cluster.cpus0.mmu.itb.inserts         5513                       # Number of times an entry is inserted into the TLB (Count)
testsys.cpu_cluster.cpus0.mmu.itb.flushTlb            6                       # Number of times complete TLB was flushed (Count)
testsys.cpu_cluster.cpus0.mmu.itb.flushTlbMva        47939                       # Number of times TLB was flushed by MVA (Count)
testsys.cpu_cluster.cpus0.mmu.itb.flushTlbMvaAsid            0                       # Number of times TLB was flushed by MVA & ASID (Count)
testsys.cpu_cluster.cpus0.mmu.itb.flushTlbAsid            0                       # Number of times TLB was flushed by ASID (Count)
testsys.cpu_cluster.cpus0.mmu.itb.flushedEntries           82                       # Number of entries that have been flushed from TLB (Count)
testsys.cpu_cluster.cpus0.mmu.itb.alignFaults            0                       # Number of TLB faults due to alignment restrictions (Count)
testsys.cpu_cluster.cpus0.mmu.itb.prefetchFaults            0                       # Number of TLB faults due to prefetch (Count)
testsys.cpu_cluster.cpus0.mmu.itb.domainFaults            0                       # Number of TLB faults due to domain restrictions (Count)
testsys.cpu_cluster.cpus0.mmu.itb.permsFaults            0                       # Number of TLB faults due to permissions restrictions (Count)
testsys.cpu_cluster.cpus0.mmu.itb.readAccesses            0                       # DTB read accesses (Count)
testsys.cpu_cluster.cpus0.mmu.itb.writeAccesses            0                       # DTB write accesses (Count)
testsys.cpu_cluster.cpus0.mmu.itb.instAccesses    114790684                       # ITB inst accesses (Count)
testsys.cpu_cluster.cpus0.mmu.itb.hits      114785171                       # Total TLB (inst and data) hits (Count)
testsys.cpu_cluster.cpus0.mmu.itb.misses         5513                       # Total TLB (inst and data) misses (Count)
testsys.cpu_cluster.cpus0.mmu.itb.accesses    114790684                       # Total TLB (inst and data) accesses (Count)
testsys.cpu_cluster.cpus0.mmu.itb_walker.walks         5513                       # Table walker walks requested (Count)
testsys.cpu_cluster.cpus0.mmu.itb_walker.walksLongDescriptor         5513                       # Table walker walks initiated with long descriptors (Count)
testsys.cpu_cluster.cpus0.mmu.itb_walker.walkWaitTime::samples         5513                       # Table walker wait (enqueue to first request) latency (Tick)
testsys.cpu_cluster.cpus0.mmu.itb_walker.walkWaitTime::0         5513    100.00%    100.00% # Table walker wait (enqueue to first request) latency (Tick)
testsys.cpu_cluster.cpus0.mmu.itb_walker.walkWaitTime::total         5513                       # Table walker wait (enqueue to first request) latency (Tick)
testsys.cpu_cluster.cpus0.mmu.itb_walker.pendingWalks::samples    121035750                       # Table walker pending requests distribution (Tick)
testsys.cpu_cluster.cpus0.mmu.itb_walker.pendingWalks::0    121035750    100.00%    100.00% # Table walker pending requests distribution (Tick)
testsys.cpu_cluster.cpus0.mmu.itb_walker.pendingWalks::total    121035750                       # Table walker pending requests distribution (Tick)
testsys.cpu_cluster.cpus0.mmu.itb_walker.pageSizes::4KiB         5339     96.84%     96.84% # Table walker page sizes translated (Count)
testsys.cpu_cluster.cpus0.mmu.itb_walker.pageSizes::2MiB          174      3.16%    100.00% # Table walker page sizes translated (Count)
testsys.cpu_cluster.cpus0.mmu.itb_walker.pageSizes::total         5513                       # Table walker page sizes translated (Count)
testsys.cpu_cluster.cpus0.mmu.itb_walker.requestOrigin_Requested::Data            0                       # Table walker requests started/completed, data/inst (Count)
testsys.cpu_cluster.cpus0.mmu.itb_walker.requestOrigin_Requested::Inst         5513                       # Table walker requests started/completed, data/inst (Count)
testsys.cpu_cluster.cpus0.mmu.itb_walker.requestOrigin_Requested::total         5513                       # Table walker requests started/completed, data/inst (Count)
testsys.cpu_cluster.cpus0.mmu.itb_walker.requestOrigin_Completed::Data            0                       # Table walker requests started/completed, data/inst (Count)
testsys.cpu_cluster.cpus0.mmu.itb_walker.requestOrigin_Completed::Inst         5513                       # Table walker requests started/completed, data/inst (Count)
testsys.cpu_cluster.cpus0.mmu.itb_walker.requestOrigin_Completed::total         5513                       # Table walker requests started/completed, data/inst (Count)
testsys.cpu_cluster.cpus0.mmu.itb_walker.requestOrigin::total        11026                       # Table walker requests started/completed, data/inst (Count)
testsys.cpu_cluster.cpus0.mmu.itb_walker.power_state.pwrStateResidencyTicks::UNDEFINED 284001817250                       # Cumulative time (in ticks) in various power states (Tick)
testsys.cpu_cluster.cpus0.mmu.stage2_dtb.instHits            0                       # ITB inst hits (Count)
testsys.cpu_cluster.cpus0.mmu.stage2_dtb.instMisses            0                       # ITB inst misses (Count)
testsys.cpu_cluster.cpus0.mmu.stage2_dtb.readHits            0                       # DTB read hits (Count)
testsys.cpu_cluster.cpus0.mmu.stage2_dtb.readMisses            0                       # DTB read misses (Count)
testsys.cpu_cluster.cpus0.mmu.stage2_dtb.writeHits            0                       # DTB write hits (Count)
testsys.cpu_cluster.cpus0.mmu.stage2_dtb.writeMisses            0                       # DTB write misses (Count)
testsys.cpu_cluster.cpus0.mmu.stage2_dtb.inserts            0                       # Number of times an entry is inserted into the TLB (Count)
testsys.cpu_cluster.cpus0.mmu.stage2_dtb.flushTlb            0                       # Number of times complete TLB was flushed (Count)
testsys.cpu_cluster.cpus0.mmu.stage2_dtb.flushTlbMva            0                       # Number of times TLB was flushed by MVA (Count)
testsys.cpu_cluster.cpus0.mmu.stage2_dtb.flushTlbMvaAsid            0                       # Number of times TLB was flushed by MVA & ASID (Count)
testsys.cpu_cluster.cpus0.mmu.stage2_dtb.flushTlbAsid            0                       # Number of times TLB was flushed by ASID (Count)
testsys.cpu_cluster.cpus0.mmu.stage2_dtb.flushedEntries            0                       # Number of entries that have been flushed from TLB (Count)
testsys.cpu_cluster.cpus0.mmu.stage2_dtb.alignFaults            0                       # Number of TLB faults due to alignment restrictions (Count)
testsys.cpu_cluster.cpus0.mmu.stage2_dtb.prefetchFaults            0                       # Number of TLB faults due to prefetch (Count)
testsys.cpu_cluster.cpus0.mmu.stage2_dtb.domainFaults            0                       # Number of TLB faults due to domain restrictions (Count)
testsys.cpu_cluster.cpus0.mmu.stage2_dtb.permsFaults            0                       # Number of TLB faults due to permissions restrictions (Count)
testsys.cpu_cluster.cpus0.mmu.stage2_dtb.readAccesses            0                       # DTB read accesses (Count)
testsys.cpu_cluster.cpus0.mmu.stage2_dtb.writeAccesses            0                       # DTB write accesses (Count)
testsys.cpu_cluster.cpus0.mmu.stage2_dtb.instAccesses            0                       # ITB inst accesses (Count)
testsys.cpu_cluster.cpus0.mmu.stage2_dtb.hits            0                       # Total TLB (inst and data) hits (Count)
testsys.cpu_cluster.cpus0.mmu.stage2_dtb.misses            0                       # Total TLB (inst and data) misses (Count)
testsys.cpu_cluster.cpus0.mmu.stage2_dtb.accesses            0                       # Total TLB (inst and data) accesses (Count)
testsys.cpu_cluster.cpus0.mmu.stage2_dtb_walker.walks            0                       # Table walker walks requested (Count)
testsys.cpu_cluster.cpus0.mmu.stage2_dtb_walker.requestOrigin_Requested::Data            0                       # Table walker requests started/completed, data/inst (Count)
testsys.cpu_cluster.cpus0.mmu.stage2_dtb_walker.requestOrigin_Requested::Inst            0                       # Table walker requests started/completed, data/inst (Count)
testsys.cpu_cluster.cpus0.mmu.stage2_dtb_walker.requestOrigin_Requested::total            0                       # Table walker requests started/completed, data/inst (Count)
testsys.cpu_cluster.cpus0.mmu.stage2_dtb_walker.requestOrigin_Completed::Data            0                       # Table walker requests started/completed, data/inst (Count)
testsys.cpu_cluster.cpus0.mmu.stage2_dtb_walker.requestOrigin_Completed::Inst            0                       # Table walker requests started/completed, data/inst (Count)
testsys.cpu_cluster.cpus0.mmu.stage2_dtb_walker.requestOrigin_Completed::total            0                       # Table walker requests started/completed, data/inst (Count)
testsys.cpu_cluster.cpus0.mmu.stage2_dtb_walker.requestOrigin::total            0                       # Table walker requests started/completed, data/inst (Count)
testsys.cpu_cluster.cpus0.mmu.stage2_dtb_walker.power_state.pwrStateResidencyTicks::UNDEFINED 284001817250                       # Cumulative time (in ticks) in various power states (Tick)
testsys.cpu_cluster.cpus0.mmu.stage2_itb.instHits            0                       # ITB inst hits (Count)
testsys.cpu_cluster.cpus0.mmu.stage2_itb.instMisses            0                       # ITB inst misses (Count)
testsys.cpu_cluster.cpus0.mmu.stage2_itb.readHits            0                       # DTB read hits (Count)
testsys.cpu_cluster.cpus0.mmu.stage2_itb.readMisses            0                       # DTB read misses (Count)
testsys.cpu_cluster.cpus0.mmu.stage2_itb.writeHits            0                       # DTB write hits (Count)
testsys.cpu_cluster.cpus0.mmu.stage2_itb.writeMisses            0                       # DTB write misses (Count)
testsys.cpu_cluster.cpus0.mmu.stage2_itb.inserts            0                       # Number of times an entry is inserted into the TLB (Count)
testsys.cpu_cluster.cpus0.mmu.stage2_itb.flushTlb            0                       # Number of times complete TLB was flushed (Count)
testsys.cpu_cluster.cpus0.mmu.stage2_itb.flushTlbMva            0                       # Number of times TLB was flushed by MVA (Count)
testsys.cpu_cluster.cpus0.mmu.stage2_itb.flushTlbMvaAsid            0                       # Number of times TLB was flushed by MVA & ASID (Count)
testsys.cpu_cluster.cpus0.mmu.stage2_itb.flushTlbAsid            0                       # Number of times TLB was flushed by ASID (Count)
testsys.cpu_cluster.cpus0.mmu.stage2_itb.flushedEntries            0                       # Number of entries that have been flushed from TLB (Count)
testsys.cpu_cluster.cpus0.mmu.stage2_itb.alignFaults            0                       # Number of TLB faults due to alignment restrictions (Count)
testsys.cpu_cluster.cpus0.mmu.stage2_itb.prefetchFaults            0                       # Number of TLB faults due to prefetch (Count)
testsys.cpu_cluster.cpus0.mmu.stage2_itb.domainFaults            0                       # Number of TLB faults due to domain restrictions (Count)
testsys.cpu_cluster.cpus0.mmu.stage2_itb.permsFaults            0                       # Number of TLB faults due to permissions restrictions (Count)
testsys.cpu_cluster.cpus0.mmu.stage2_itb.readAccesses            0                       # DTB read accesses (Count)
testsys.cpu_cluster.cpus0.mmu.stage2_itb.writeAccesses            0                       # DTB write accesses (Count)
testsys.cpu_cluster.cpus0.mmu.stage2_itb.instAccesses            0                       # ITB inst accesses (Count)
testsys.cpu_cluster.cpus0.mmu.stage2_itb.hits            0                       # Total TLB (inst and data) hits (Count)
testsys.cpu_cluster.cpus0.mmu.stage2_itb.misses            0                       # Total TLB (inst and data) misses (Count)
testsys.cpu_cluster.cpus0.mmu.stage2_itb.accesses            0                       # Total TLB (inst and data) accesses (Count)
testsys.cpu_cluster.cpus0.mmu.stage2_itb_walker.walks            0                       # Table walker walks requested (Count)
testsys.cpu_cluster.cpus0.mmu.stage2_itb_walker.requestOrigin_Requested::Data            0                       # Table walker requests started/completed, data/inst (Count)
testsys.cpu_cluster.cpus0.mmu.stage2_itb_walker.requestOrigin_Requested::Inst            0                       # Table walker requests started/completed, data/inst (Count)
testsys.cpu_cluster.cpus0.mmu.stage2_itb_walker.requestOrigin_Requested::total            0                       # Table walker requests started/completed, data/inst (Count)
testsys.cpu_cluster.cpus0.mmu.stage2_itb_walker.requestOrigin_Completed::Data            0                       # Table walker requests started/completed, data/inst (Count)
testsys.cpu_cluster.cpus0.mmu.stage2_itb_walker.requestOrigin_Completed::Inst            0                       # Table walker requests started/completed, data/inst (Count)
testsys.cpu_cluster.cpus0.mmu.stage2_itb_walker.requestOrigin_Completed::total            0                       # Table walker requests started/completed, data/inst (Count)
testsys.cpu_cluster.cpus0.mmu.stage2_itb_walker.requestOrigin::total            0                       # Table walker requests started/completed, data/inst (Count)
testsys.cpu_cluster.cpus0.mmu.stage2_itb_walker.power_state.pwrStateResidencyTicks::UNDEFINED 284001817250                       # Cumulative time (in ticks) in various power states (Tick)
testsys.cpu_cluster.cpus0.power_state.numTransitions         3673                       # Number of power state transitions (Count)
testsys.cpu_cluster.cpus0.power_state.ticksClkGated::samples         1837                       # Distribution of time spent in the clock gated state (Tick)
testsys.cpu_cluster.cpus0.power_state.ticksClkGated::mean 137612278.757757                       # Distribution of time spent in the clock gated state (Tick)
testsys.cpu_cluster.cpus0.power_state.ticksClkGated::stdev 54938317.425900                       # Distribution of time spent in the clock gated state (Tick)
testsys.cpu_cluster.cpus0.power_state.ticksClkGated::underflows            6      0.33%      0.33% # Distribution of time spent in the clock gated state (Tick)
testsys.cpu_cluster.cpus0.power_state.ticksClkGated::1000-5e+10         1831     99.67%    100.00% # Distribution of time spent in the clock gated state (Tick)
testsys.cpu_cluster.cpus0.power_state.ticksClkGated::min_value          251                       # Distribution of time spent in the clock gated state (Tick)
testsys.cpu_cluster.cpus0.power_state.ticksClkGated::max_value    162695906                       # Distribution of time spent in the clock gated state (Tick)
testsys.cpu_cluster.cpus0.power_state.ticksClkGated::total         1837                       # Distribution of time spent in the clock gated state (Tick)
testsys.cpu_cluster.cpus0.power_state.pwrStateResidencyTicks::ON  31208061172                       # Cumulative time (in ticks) in various power states (Tick)
testsys.cpu_cluster.cpus0.power_state.pwrStateResidencyTicks::CLK_GATED 252793756078                       # Cumulative time (in ticks) in various power states (Tick)
testsys.cpu_cluster.cpus0.thread_0.numInsts            0                       # Number of Instructions committed (Count)
testsys.cpu_cluster.cpus0.thread_0.numOps            0                       # Number of Ops committed (Count)
testsys.cpu_cluster.cpus0.thread_0.numMemRefs            0                       # Number of Memory References (Count)
testsys.cpu_cluster.cpus1.numCycles        1135731637                       # Number of cpu cycles simulated (Cycle)
testsys.cpu_cluster.cpus1.numWorkItemsStarted            0                       # Number of work items this cpu started (Count)
testsys.cpu_cluster.cpus1.numWorkItemsCompleted            0                       # Number of work items this cpu completed (Count)
testsys.cpu_cluster.cpus1.exec_context.thread_0.numInsts      7040738                       # Number of instructions committed (Count)
testsys.cpu_cluster.cpus1.exec_context.thread_0.numOps      7676175                       # Number of ops (including micro ops) committed (Count)
testsys.cpu_cluster.cpus1.exec_context.thread_0.numIntAluAccesses      6096299                       # Number of integer alu accesses (Count)
testsys.cpu_cluster.cpus1.exec_context.thread_0.numFpAluAccesses            0                       # Number of float alu accesses (Count)
testsys.cpu_cluster.cpus1.exec_context.thread_0.numVecAluAccesses            0                       # Number of vector alu accesses (Count)
testsys.cpu_cluster.cpus1.exec_context.thread_0.numCallsReturns       226336                       # Number of times a function call or return occured (Count)
testsys.cpu_cluster.cpus1.exec_context.thread_0.numCondCtrlInsts      1654875                       # Number of instructions that are conditional controls (Count)
testsys.cpu_cluster.cpus1.exec_context.thread_0.numIntInsts      6096299                       # Number of integer instructions (Count)
testsys.cpu_cluster.cpus1.exec_context.thread_0.numFpInsts            0                       # Number of float instructions (Count)
testsys.cpu_cluster.cpus1.exec_context.thread_0.numVecInsts            0                       # Number of vector instructions (Count)
testsys.cpu_cluster.cpus1.exec_context.thread_0.numIntRegReads      7490662                       # Number of times the integer registers were read (Count)
testsys.cpu_cluster.cpus1.exec_context.thread_0.numIntRegWrites      4138634                       # Number of times the integer registers were written (Count)
testsys.cpu_cluster.cpus1.exec_context.thread_0.numFpRegReads            0                       # Number of times the floating registers were read (Count)
testsys.cpu_cluster.cpus1.exec_context.thread_0.numFpRegWrites            0                       # Number of times the floating registers were written (Count)
testsys.cpu_cluster.cpus1.exec_context.thread_0.numVecRegReads            0                       # Number of times the vector registers were read (Count)
testsys.cpu_cluster.cpus1.exec_context.thread_0.numVecRegWrites            0                       # Number of times the vector registers were written (Count)
testsys.cpu_cluster.cpus1.exec_context.thread_0.numVecPredRegReads            0                       # Number of times the predicate registers were read (Count)
testsys.cpu_cluster.cpus1.exec_context.thread_0.numVecPredRegWrites            0                       # Number of times the predicate registers were written (Count)
testsys.cpu_cluster.cpus1.exec_context.thread_0.numCCRegReads      4519414                       # Number of times the CC registers were read (Count)
testsys.cpu_cluster.cpus1.exec_context.thread_0.numCCRegWrites       674427                       # Number of times the CC registers were written (Count)
testsys.cpu_cluster.cpus1.exec_context.thread_0.numMemRefs      2523641                       # Number of memory refs (Count)
testsys.cpu_cluster.cpus1.exec_context.thread_0.numLoadInsts      1923406                       # Number of load instructions (Count)
testsys.cpu_cluster.cpus1.exec_context.thread_0.numStoreInsts       600235                       # Number of store instructions (Count)
testsys.cpu_cluster.cpus1.exec_context.thread_0.numIdleCycles 1128058139.825765                       # Number of idle cycles (Cycle)
testsys.cpu_cluster.cpus1.exec_context.thread_0.numBusyCycles 7673497.174235                       # Number of busy cycles (Cycle)
testsys.cpu_cluster.cpus1.exec_context.thread_0.notIdleFraction     0.006756                       # Percentage of non-idle cycles (Ratio)
testsys.cpu_cluster.cpus1.exec_context.thread_0.idleFraction     0.993244                       # Percentage of idle cycles (Ratio)
testsys.cpu_cluster.cpus1.exec_context.thread_0.numBranches      1922414                       # Number of branches fetched (Count)
testsys.cpu_cluster.cpus1.exec_context.thread_0.statExecutedInstType::No_OpClass           42      0.00%      0.00% # Class of executed instruction. (Count)
testsys.cpu_cluster.cpus1.exec_context.thread_0.statExecutedInstType::IntAlu      5139619     66.96%     66.96% # Class of executed instruction. (Count)
testsys.cpu_cluster.cpus1.exec_context.thread_0.statExecutedInstType::IntMult        10616      0.14%     67.09% # Class of executed instruction. (Count)
testsys.cpu_cluster.cpus1.exec_context.thread_0.statExecutedInstType::IntDiv         2257      0.03%     67.12% # Class of executed instruction. (Count)
testsys.cpu_cluster.cpus1.exec_context.thread_0.statExecutedInstType::FloatAdd            0      0.00%     67.12% # Class of executed instruction. (Count)
testsys.cpu_cluster.cpus1.exec_context.thread_0.statExecutedInstType::FloatCmp            0      0.00%     67.12% # Class of executed instruction. (Count)
testsys.cpu_cluster.cpus1.exec_context.thread_0.statExecutedInstType::FloatCvt            0      0.00%     67.12% # Class of executed instruction. (Count)
testsys.cpu_cluster.cpus1.exec_context.thread_0.statExecutedInstType::FloatMult            0      0.00%     67.12% # Class of executed instruction. (Count)
testsys.cpu_cluster.cpus1.exec_context.thread_0.statExecutedInstType::FloatMultAcc            0      0.00%     67.12% # Class of executed instruction. (Count)
testsys.cpu_cluster.cpus1.exec_context.thread_0.statExecutedInstType::FloatDiv            0      0.00%     67.12% # Class of executed instruction. (Count)
testsys.cpu_cluster.cpus1.exec_context.thread_0.statExecutedInstType::FloatMisc            0      0.00%     67.12% # Class of executed instruction. (Count)
testsys.cpu_cluster.cpus1.exec_context.thread_0.statExecutedInstType::FloatSqrt            0      0.00%     67.12% # Class of executed instruction. (Count)
testsys.cpu_cluster.cpus1.exec_context.thread_0.statExecutedInstType::SimdAdd            0      0.00%     67.12% # Class of executed instruction. (Count)
testsys.cpu_cluster.cpus1.exec_context.thread_0.statExecutedInstType::SimdAddAcc            0      0.00%     67.12% # Class of executed instruction. (Count)
testsys.cpu_cluster.cpus1.exec_context.thread_0.statExecutedInstType::SimdAlu            0      0.00%     67.12% # Class of executed instruction. (Count)
testsys.cpu_cluster.cpus1.exec_context.thread_0.statExecutedInstType::SimdCmp            0      0.00%     67.12% # Class of executed instruction. (Count)
testsys.cpu_cluster.cpus1.exec_context.thread_0.statExecutedInstType::SimdCvt            0      0.00%     67.12% # Class of executed instruction. (Count)
testsys.cpu_cluster.cpus1.exec_context.thread_0.statExecutedInstType::SimdMisc            0      0.00%     67.12% # Class of executed instruction. (Count)
testsys.cpu_cluster.cpus1.exec_context.thread_0.statExecutedInstType::SimdMult            0      0.00%     67.12% # Class of executed instruction. (Count)
testsys.cpu_cluster.cpus1.exec_context.thread_0.statExecutedInstType::SimdMultAcc            0      0.00%     67.12% # Class of executed instruction. (Count)
testsys.cpu_cluster.cpus1.exec_context.thread_0.statExecutedInstType::SimdShift            0      0.00%     67.12% # Class of executed instruction. (Count)
testsys.cpu_cluster.cpus1.exec_context.thread_0.statExecutedInstType::SimdShiftAcc            0      0.00%     67.12% # Class of executed instruction. (Count)
testsys.cpu_cluster.cpus1.exec_context.thread_0.statExecutedInstType::SimdDiv            0      0.00%     67.12% # Class of executed instruction. (Count)
testsys.cpu_cluster.cpus1.exec_context.thread_0.statExecutedInstType::SimdSqrt            0      0.00%     67.12% # Class of executed instruction. (Count)
testsys.cpu_cluster.cpus1.exec_context.thread_0.statExecutedInstType::SimdFloatAdd            0      0.00%     67.12% # Class of executed instruction. (Count)
testsys.cpu_cluster.cpus1.exec_context.thread_0.statExecutedInstType::SimdFloatAlu            0      0.00%     67.12% # Class of executed instruction. (Count)
testsys.cpu_cluster.cpus1.exec_context.thread_0.statExecutedInstType::SimdFloatCmp            0      0.00%     67.12% # Class of executed instruction. (Count)
testsys.cpu_cluster.cpus1.exec_context.thread_0.statExecutedInstType::SimdFloatCvt            0      0.00%     67.12% # Class of executed instruction. (Count)
testsys.cpu_cluster.cpus1.exec_context.thread_0.statExecutedInstType::SimdFloatDiv            0      0.00%     67.12% # Class of executed instruction. (Count)
testsys.cpu_cluster.cpus1.exec_context.thread_0.statExecutedInstType::SimdFloatMisc            0      0.00%     67.12% # Class of executed instruction. (Count)
testsys.cpu_cluster.cpus1.exec_context.thread_0.statExecutedInstType::SimdFloatMult            0      0.00%     67.12% # Class of executed instruction. (Count)
testsys.cpu_cluster.cpus1.exec_context.thread_0.statExecutedInstType::SimdFloatMultAcc            0      0.00%     67.12% # Class of executed instruction. (Count)
testsys.cpu_cluster.cpus1.exec_context.thread_0.statExecutedInstType::SimdFloatSqrt            0      0.00%     67.12% # Class of executed instruction. (Count)
testsys.cpu_cluster.cpus1.exec_context.thread_0.statExecutedInstType::SimdReduceAdd            0      0.00%     67.12% # Class of executed instruction. (Count)
testsys.cpu_cluster.cpus1.exec_context.thread_0.statExecutedInstType::SimdReduceAlu            0      0.00%     67.12% # Class of executed instruction. (Count)
testsys.cpu_cluster.cpus1.exec_context.thread_0.statExecutedInstType::SimdReduceCmp            0      0.00%     67.12% # Class of executed instruction. (Count)
testsys.cpu_cluster.cpus1.exec_context.thread_0.statExecutedInstType::SimdFloatReduceAdd            0      0.00%     67.12% # Class of executed instruction. (Count)
testsys.cpu_cluster.cpus1.exec_context.thread_0.statExecutedInstType::SimdFloatReduceCmp            0      0.00%     67.12% # Class of executed instruction. (Count)
testsys.cpu_cluster.cpus1.exec_context.thread_0.statExecutedInstType::SimdAes            0      0.00%     67.12% # Class of executed instruction. (Count)
testsys.cpu_cluster.cpus1.exec_context.thread_0.statExecutedInstType::SimdAesMix            0      0.00%     67.12% # Class of executed instruction. (Count)
testsys.cpu_cluster.cpus1.exec_context.thread_0.statExecutedInstType::SimdSha1Hash            0      0.00%     67.12% # Class of executed instruction. (Count)
testsys.cpu_cluster.cpus1.exec_context.thread_0.statExecutedInstType::SimdSha1Hash2            0      0.00%     67.12% # Class of executed instruction. (Count)
testsys.cpu_cluster.cpus1.exec_context.thread_0.statExecutedInstType::SimdSha256Hash            0      0.00%     67.12% # Class of executed instruction. (Count)
testsys.cpu_cluster.cpus1.exec_context.thread_0.statExecutedInstType::SimdSha256Hash2            0      0.00%     67.12% # Class of executed instruction. (Count)
testsys.cpu_cluster.cpus1.exec_context.thread_0.statExecutedInstType::SimdShaSigma2            0      0.00%     67.12% # Class of executed instruction. (Count)
testsys.cpu_cluster.cpus1.exec_context.thread_0.statExecutedInstType::SimdShaSigma3            0      0.00%     67.12% # Class of executed instruction. (Count)
testsys.cpu_cluster.cpus1.exec_context.thread_0.statExecutedInstType::SimdPredAlu            0      0.00%     67.12% # Class of executed instruction. (Count)
testsys.cpu_cluster.cpus1.exec_context.thread_0.statExecutedInstType::MemRead      1923406     25.06%     92.18% # Class of executed instruction. (Count)
testsys.cpu_cluster.cpus1.exec_context.thread_0.statExecutedInstType::MemWrite       600235      7.82%    100.00% # Class of executed instruction. (Count)
testsys.cpu_cluster.cpus1.exec_context.thread_0.statExecutedInstType::FloatMemRead            0      0.00%    100.00% # Class of executed instruction. (Count)
testsys.cpu_cluster.cpus1.exec_context.thread_0.statExecutedInstType::FloatMemWrite            0      0.00%    100.00% # Class of executed instruction. (Count)
testsys.cpu_cluster.cpus1.exec_context.thread_0.statExecutedInstType::IprAccess            0      0.00%    100.00% # Class of executed instruction. (Count)
testsys.cpu_cluster.cpus1.exec_context.thread_0.statExecutedInstType::InstPrefetch            0      0.00%    100.00% # Class of executed instruction. (Count)
testsys.cpu_cluster.cpus1.exec_context.thread_0.statExecutedInstType::total      7676175                       # Class of executed instruction. (Count)
testsys.cpu_cluster.cpus1.mmu.dtb.instHits            0                       # ITB inst hits (Count)
testsys.cpu_cluster.cpus1.mmu.dtb.instMisses            0                       # ITB inst misses (Count)
testsys.cpu_cluster.cpus1.mmu.dtb.readHits      1913709                       # DTB read hits (Count)
testsys.cpu_cluster.cpus1.mmu.dtb.readMisses        10313                       # DTB read misses (Count)
testsys.cpu_cluster.cpus1.mmu.dtb.writeHits       598047                       # DTB write hits (Count)
testsys.cpu_cluster.cpus1.mmu.dtb.writeMisses         2194                       # DTB write misses (Count)
testsys.cpu_cluster.cpus1.mmu.dtb.inserts        12267                       # Number of times an entry is inserted into the TLB (Count)
testsys.cpu_cluster.cpus1.mmu.dtb.flushTlb            3                       # Number of times complete TLB was flushed (Count)
testsys.cpu_cluster.cpus1.mmu.dtb.flushTlbMva        47939                       # Number of times TLB was flushed by MVA (Count)
testsys.cpu_cluster.cpus1.mmu.dtb.flushTlbMvaAsid            0                       # Number of times TLB was flushed by MVA & ASID (Count)
testsys.cpu_cluster.cpus1.mmu.dtb.flushTlbAsid            0                       # Number of times TLB was flushed by ASID (Count)
testsys.cpu_cluster.cpus1.mmu.dtb.flushedEntries           81                       # Number of entries that have been flushed from TLB (Count)
testsys.cpu_cluster.cpus1.mmu.dtb.alignFaults            0                       # Number of TLB faults due to alignment restrictions (Count)
testsys.cpu_cluster.cpus1.mmu.dtb.prefetchFaults          240                       # Number of TLB faults due to prefetch (Count)
testsys.cpu_cluster.cpus1.mmu.dtb.domainFaults            0                       # Number of TLB faults due to domain restrictions (Count)
testsys.cpu_cluster.cpus1.mmu.dtb.permsFaults            0                       # Number of TLB faults due to permissions restrictions (Count)
testsys.cpu_cluster.cpus1.mmu.dtb.readAccesses      1924022                       # DTB read accesses (Count)
testsys.cpu_cluster.cpus1.mmu.dtb.writeAccesses       600241                       # DTB write accesses (Count)
testsys.cpu_cluster.cpus1.mmu.dtb.instAccesses            0                       # ITB inst accesses (Count)
testsys.cpu_cluster.cpus1.mmu.dtb.hits        2511756                       # Total TLB (inst and data) hits (Count)
testsys.cpu_cluster.cpus1.mmu.dtb.misses        12507                       # Total TLB (inst and data) misses (Count)
testsys.cpu_cluster.cpus1.mmu.dtb.accesses      2524263                       # Total TLB (inst and data) accesses (Count)
testsys.cpu_cluster.cpus1.mmu.dtb_walker.walks        12267                       # Table walker walks requested (Count)
testsys.cpu_cluster.cpus1.mmu.dtb_walker.walksLongDescriptor        12267                       # Table walker walks initiated with long descriptors (Count)
testsys.cpu_cluster.cpus1.mmu.dtb_walker.walkWaitTime::samples        12267                       # Table walker wait (enqueue to first request) latency (Tick)
testsys.cpu_cluster.cpus1.mmu.dtb_walker.walkWaitTime::0        12267    100.00%    100.00% # Table walker wait (enqueue to first request) latency (Tick)
testsys.cpu_cluster.cpus1.mmu.dtb_walker.walkWaitTime::total        12267                       # Table walker wait (enqueue to first request) latency (Tick)
testsys.cpu_cluster.cpus1.mmu.dtb_walker.pendingWalks::samples  -1219533650                       # Table walker pending requests distribution (Tick)
testsys.cpu_cluster.cpus1.mmu.dtb_walker.pendingWalks::0  -1219533650    100.00%    100.00% # Table walker pending requests distribution (Tick)
testsys.cpu_cluster.cpus1.mmu.dtb_walker.pendingWalks::total  -1219533650                       # Table walker pending requests distribution (Tick)
testsys.cpu_cluster.cpus1.mmu.dtb_walker.pageSizes::4KiB        11958     97.48%     97.48% # Table walker page sizes translated (Count)
testsys.cpu_cluster.cpus1.mmu.dtb_walker.pageSizes::2MiB          309      2.52%    100.00% # Table walker page sizes translated (Count)
testsys.cpu_cluster.cpus1.mmu.dtb_walker.pageSizes::total        12267                       # Table walker page sizes translated (Count)
testsys.cpu_cluster.cpus1.mmu.dtb_walker.requestOrigin_Requested::Data        12267                       # Table walker requests started/completed, data/inst (Count)
testsys.cpu_cluster.cpus1.mmu.dtb_walker.requestOrigin_Requested::Inst            0                       # Table walker requests started/completed, data/inst (Count)
testsys.cpu_cluster.cpus1.mmu.dtb_walker.requestOrigin_Requested::total        12267                       # Table walker requests started/completed, data/inst (Count)
testsys.cpu_cluster.cpus1.mmu.dtb_walker.requestOrigin_Completed::Data        12267                       # Table walker requests started/completed, data/inst (Count)
testsys.cpu_cluster.cpus1.mmu.dtb_walker.requestOrigin_Completed::Inst            0                       # Table walker requests started/completed, data/inst (Count)
testsys.cpu_cluster.cpus1.mmu.dtb_walker.requestOrigin_Completed::total        12267                       # Table walker requests started/completed, data/inst (Count)
testsys.cpu_cluster.cpus1.mmu.dtb_walker.requestOrigin::total        24534                       # Table walker requests started/completed, data/inst (Count)
testsys.cpu_cluster.cpus1.mmu.dtb_walker.power_state.pwrStateResidencyTicks::UNDEFINED 284001817250                       # Cumulative time (in ticks) in various power states (Tick)
testsys.cpu_cluster.cpus1.mmu.itb.instHits      7036126                       # ITB inst hits (Count)
testsys.cpu_cluster.cpus1.mmu.itb.instMisses         4469                       # ITB inst misses (Count)
testsys.cpu_cluster.cpus1.mmu.itb.readHits            0                       # DTB read hits (Count)
testsys.cpu_cluster.cpus1.mmu.itb.readMisses            0                       # DTB read misses (Count)
testsys.cpu_cluster.cpus1.mmu.itb.writeHits            0                       # DTB write hits (Count)
testsys.cpu_cluster.cpus1.mmu.itb.writeMisses            0                       # DTB write misses (Count)
testsys.cpu_cluster.cpus1.mmu.itb.inserts         4469                       # Number of times an entry is inserted into the TLB (Count)
testsys.cpu_cluster.cpus1.mmu.itb.flushTlb            3                       # Number of times complete TLB was flushed (Count)
testsys.cpu_cluster.cpus1.mmu.itb.flushTlbMva        47939                       # Number of times TLB was flushed by MVA (Count)
testsys.cpu_cluster.cpus1.mmu.itb.flushTlbMvaAsid            0                       # Number of times TLB was flushed by MVA & ASID (Count)
testsys.cpu_cluster.cpus1.mmu.itb.flushTlbAsid            0                       # Number of times TLB was flushed by ASID (Count)
testsys.cpu_cluster.cpus1.mmu.itb.flushedEntries           68                       # Number of entries that have been flushed from TLB (Count)
testsys.cpu_cluster.cpus1.mmu.itb.alignFaults            0                       # Number of TLB faults due to alignment restrictions (Count)
testsys.cpu_cluster.cpus1.mmu.itb.prefetchFaults            0                       # Number of TLB faults due to prefetch (Count)
testsys.cpu_cluster.cpus1.mmu.itb.domainFaults            0                       # Number of TLB faults due to domain restrictions (Count)
testsys.cpu_cluster.cpus1.mmu.itb.permsFaults            0                       # Number of TLB faults due to permissions restrictions (Count)
testsys.cpu_cluster.cpus1.mmu.itb.readAccesses            0                       # DTB read accesses (Count)
testsys.cpu_cluster.cpus1.mmu.itb.writeAccesses            0                       # DTB write accesses (Count)
testsys.cpu_cluster.cpus1.mmu.itb.instAccesses      7040595                       # ITB inst accesses (Count)
testsys.cpu_cluster.cpus1.mmu.itb.hits        7036126                       # Total TLB (inst and data) hits (Count)
testsys.cpu_cluster.cpus1.mmu.itb.misses         4469                       # Total TLB (inst and data) misses (Count)
testsys.cpu_cluster.cpus1.mmu.itb.accesses      7040595                       # Total TLB (inst and data) accesses (Count)
testsys.cpu_cluster.cpus1.mmu.itb_walker.walks         4469                       # Table walker walks requested (Count)
testsys.cpu_cluster.cpus1.mmu.itb_walker.walksLongDescriptor         4469                       # Table walker walks initiated with long descriptors (Count)
testsys.cpu_cluster.cpus1.mmu.itb_walker.walkWaitTime::samples         4469                       # Table walker wait (enqueue to first request) latency (Tick)
testsys.cpu_cluster.cpus1.mmu.itb_walker.walkWaitTime::0         4469    100.00%    100.00% # Table walker wait (enqueue to first request) latency (Tick)
testsys.cpu_cluster.cpus1.mmu.itb_walker.walkWaitTime::total         4469                       # Table walker wait (enqueue to first request) latency (Tick)
testsys.cpu_cluster.cpus1.mmu.itb_walker.pendingWalks::samples  -1219534900                       # Table walker pending requests distribution (Tick)
testsys.cpu_cluster.cpus1.mmu.itb_walker.pendingWalks::0  -1219534900    100.00%    100.00% # Table walker pending requests distribution (Tick)
testsys.cpu_cluster.cpus1.mmu.itb_walker.pendingWalks::total  -1219534900                       # Table walker pending requests distribution (Tick)
testsys.cpu_cluster.cpus1.mmu.itb_walker.pageSizes::4KiB         4291     96.02%     96.02% # Table walker page sizes translated (Count)
testsys.cpu_cluster.cpus1.mmu.itb_walker.pageSizes::2MiB          178      3.98%    100.00% # Table walker page sizes translated (Count)
testsys.cpu_cluster.cpus1.mmu.itb_walker.pageSizes::total         4469                       # Table walker page sizes translated (Count)
testsys.cpu_cluster.cpus1.mmu.itb_walker.requestOrigin_Requested::Data            0                       # Table walker requests started/completed, data/inst (Count)
testsys.cpu_cluster.cpus1.mmu.itb_walker.requestOrigin_Requested::Inst         4469                       # Table walker requests started/completed, data/inst (Count)
testsys.cpu_cluster.cpus1.mmu.itb_walker.requestOrigin_Requested::total         4469                       # Table walker requests started/completed, data/inst (Count)
testsys.cpu_cluster.cpus1.mmu.itb_walker.requestOrigin_Completed::Data            0                       # Table walker requests started/completed, data/inst (Count)
testsys.cpu_cluster.cpus1.mmu.itb_walker.requestOrigin_Completed::Inst         4469                       # Table walker requests started/completed, data/inst (Count)
testsys.cpu_cluster.cpus1.mmu.itb_walker.requestOrigin_Completed::total         4469                       # Table walker requests started/completed, data/inst (Count)
testsys.cpu_cluster.cpus1.mmu.itb_walker.requestOrigin::total         8938                       # Table walker requests started/completed, data/inst (Count)
testsys.cpu_cluster.cpus1.mmu.itb_walker.power_state.pwrStateResidencyTicks::UNDEFINED 284001817250                       # Cumulative time (in ticks) in various power states (Tick)
testsys.cpu_cluster.cpus1.mmu.stage2_dtb.instHits            0                       # ITB inst hits (Count)
testsys.cpu_cluster.cpus1.mmu.stage2_dtb.instMisses            0                       # ITB inst misses (Count)
testsys.cpu_cluster.cpus1.mmu.stage2_dtb.readHits            0                       # DTB read hits (Count)
testsys.cpu_cluster.cpus1.mmu.stage2_dtb.readMisses            0                       # DTB read misses (Count)
testsys.cpu_cluster.cpus1.mmu.stage2_dtb.writeHits            0                       # DTB write hits (Count)
testsys.cpu_cluster.cpus1.mmu.stage2_dtb.writeMisses            0                       # DTB write misses (Count)
testsys.cpu_cluster.cpus1.mmu.stage2_dtb.inserts            0                       # Number of times an entry is inserted into the TLB (Count)
testsys.cpu_cluster.cpus1.mmu.stage2_dtb.flushTlb            0                       # Number of times complete TLB was flushed (Count)
testsys.cpu_cluster.cpus1.mmu.stage2_dtb.flushTlbMva            0                       # Number of times TLB was flushed by MVA (Count)
testsys.cpu_cluster.cpus1.mmu.stage2_dtb.flushTlbMvaAsid            0                       # Number of times TLB was flushed by MVA & ASID (Count)
testsys.cpu_cluster.cpus1.mmu.stage2_dtb.flushTlbAsid            0                       # Number of times TLB was flushed by ASID (Count)
testsys.cpu_cluster.cpus1.mmu.stage2_dtb.flushedEntries            0                       # Number of entries that have been flushed from TLB (Count)
testsys.cpu_cluster.cpus1.mmu.stage2_dtb.alignFaults            0                       # Number of TLB faults due to alignment restrictions (Count)
testsys.cpu_cluster.cpus1.mmu.stage2_dtb.prefetchFaults            0                       # Number of TLB faults due to prefetch (Count)
testsys.cpu_cluster.cpus1.mmu.stage2_dtb.domainFaults            0                       # Number of TLB faults due to domain restrictions (Count)
testsys.cpu_cluster.cpus1.mmu.stage2_dtb.permsFaults            0                       # Number of TLB faults due to permissions restrictions (Count)
testsys.cpu_cluster.cpus1.mmu.stage2_dtb.readAccesses            0                       # DTB read accesses (Count)
testsys.cpu_cluster.cpus1.mmu.stage2_dtb.writeAccesses            0                       # DTB write accesses (Count)
testsys.cpu_cluster.cpus1.mmu.stage2_dtb.instAccesses            0                       # ITB inst accesses (Count)
testsys.cpu_cluster.cpus1.mmu.stage2_dtb.hits            0                       # Total TLB (inst and data) hits (Count)
testsys.cpu_cluster.cpus1.mmu.stage2_dtb.misses            0                       # Total TLB (inst and data) misses (Count)
testsys.cpu_cluster.cpus1.mmu.stage2_dtb.accesses            0                       # Total TLB (inst and data) accesses (Count)
testsys.cpu_cluster.cpus1.mmu.stage2_dtb_walker.walks            0                       # Table walker walks requested (Count)
testsys.cpu_cluster.cpus1.mmu.stage2_dtb_walker.requestOrigin_Requested::Data            0                       # Table walker requests started/completed, data/inst (Count)
testsys.cpu_cluster.cpus1.mmu.stage2_dtb_walker.requestOrigin_Requested::Inst            0                       # Table walker requests started/completed, data/inst (Count)
testsys.cpu_cluster.cpus1.mmu.stage2_dtb_walker.requestOrigin_Requested::total            0                       # Table walker requests started/completed, data/inst (Count)
testsys.cpu_cluster.cpus1.mmu.stage2_dtb_walker.requestOrigin_Completed::Data            0                       # Table walker requests started/completed, data/inst (Count)
testsys.cpu_cluster.cpus1.mmu.stage2_dtb_walker.requestOrigin_Completed::Inst            0                       # Table walker requests started/completed, data/inst (Count)
testsys.cpu_cluster.cpus1.mmu.stage2_dtb_walker.requestOrigin_Completed::total            0                       # Table walker requests started/completed, data/inst (Count)
testsys.cpu_cluster.cpus1.mmu.stage2_dtb_walker.requestOrigin::total            0                       # Table walker requests started/completed, data/inst (Count)
testsys.cpu_cluster.cpus1.mmu.stage2_dtb_walker.power_state.pwrStateResidencyTicks::UNDEFINED 284001817250                       # Cumulative time (in ticks) in various power states (Tick)
testsys.cpu_cluster.cpus1.mmu.stage2_itb.instHits            0                       # ITB inst hits (Count)
testsys.cpu_cluster.cpus1.mmu.stage2_itb.instMisses            0                       # ITB inst misses (Count)
testsys.cpu_cluster.cpus1.mmu.stage2_itb.readHits            0                       # DTB read hits (Count)
testsys.cpu_cluster.cpus1.mmu.stage2_itb.readMisses            0                       # DTB read misses (Count)
testsys.cpu_cluster.cpus1.mmu.stage2_itb.writeHits            0                       # DTB write hits (Count)
testsys.cpu_cluster.cpus1.mmu.stage2_itb.writeMisses            0                       # DTB write misses (Count)
testsys.cpu_cluster.cpus1.mmu.stage2_itb.inserts            0                       # Number of times an entry is inserted into the TLB (Count)
testsys.cpu_cluster.cpus1.mmu.stage2_itb.flushTlb            0                       # Number of times complete TLB was flushed (Count)
testsys.cpu_cluster.cpus1.mmu.stage2_itb.flushTlbMva            0                       # Number of times TLB was flushed by MVA (Count)
testsys.cpu_cluster.cpus1.mmu.stage2_itb.flushTlbMvaAsid            0                       # Number of times TLB was flushed by MVA & ASID (Count)
testsys.cpu_cluster.cpus1.mmu.stage2_itb.flushTlbAsid            0                       # Number of times TLB was flushed by ASID (Count)
testsys.cpu_cluster.cpus1.mmu.stage2_itb.flushedEntries            0                       # Number of entries that have been flushed from TLB (Count)
testsys.cpu_cluster.cpus1.mmu.stage2_itb.alignFaults            0                       # Number of TLB faults due to alignment restrictions (Count)
testsys.cpu_cluster.cpus1.mmu.stage2_itb.prefetchFaults            0                       # Number of TLB faults due to prefetch (Count)
testsys.cpu_cluster.cpus1.mmu.stage2_itb.domainFaults            0                       # Number of TLB faults due to domain restrictions (Count)
testsys.cpu_cluster.cpus1.mmu.stage2_itb.permsFaults            0                       # Number of TLB faults due to permissions restrictions (Count)
testsys.cpu_cluster.cpus1.mmu.stage2_itb.readAccesses            0                       # DTB read accesses (Count)
testsys.cpu_cluster.cpus1.mmu.stage2_itb.writeAccesses            0                       # DTB write accesses (Count)
testsys.cpu_cluster.cpus1.mmu.stage2_itb.instAccesses            0                       # ITB inst accesses (Count)
testsys.cpu_cluster.cpus1.mmu.stage2_itb.hits            0                       # Total TLB (inst and data) hits (Count)
testsys.cpu_cluster.cpus1.mmu.stage2_itb.misses            0                       # Total TLB (inst and data) misses (Count)
testsys.cpu_cluster.cpus1.mmu.stage2_itb.accesses            0                       # Total TLB (inst and data) accesses (Count)
testsys.cpu_cluster.cpus1.mmu.stage2_itb_walker.walks            0                       # Table walker walks requested (Count)
testsys.cpu_cluster.cpus1.mmu.stage2_itb_walker.requestOrigin_Requested::Data            0                       # Table walker requests started/completed, data/inst (Count)
testsys.cpu_cluster.cpus1.mmu.stage2_itb_walker.requestOrigin_Requested::Inst            0                       # Table walker requests started/completed, data/inst (Count)
testsys.cpu_cluster.cpus1.mmu.stage2_itb_walker.requestOrigin_Requested::total            0                       # Table walker requests started/completed, data/inst (Count)
testsys.cpu_cluster.cpus1.mmu.stage2_itb_walker.requestOrigin_Completed::Data            0                       # Table walker requests started/completed, data/inst (Count)
testsys.cpu_cluster.cpus1.mmu.stage2_itb_walker.requestOrigin_Completed::Inst            0                       # Table walker requests started/completed, data/inst (Count)
testsys.cpu_cluster.cpus1.mmu.stage2_itb_walker.requestOrigin_Completed::total            0                       # Table walker requests started/completed, data/inst (Count)
testsys.cpu_cluster.cpus1.mmu.stage2_itb_walker.requestOrigin::total            0                       # Table walker requests started/completed, data/inst (Count)
testsys.cpu_cluster.cpus1.mmu.stage2_itb_walker.power_state.pwrStateResidencyTicks::UNDEFINED 284001817250                       # Cumulative time (in ticks) in various power states (Tick)
testsys.cpu_cluster.cpus1.power_state.numTransitions         2769                       # Number of power state transitions (Count)
testsys.cpu_cluster.cpus1.power_state.ticksClkGated::samples         1385                       # Distribution of time spent in the clock gated state (Tick)
testsys.cpu_cluster.cpus1.power_state.ticksClkGated::mean 203670019.771841                       # Distribution of time spent in the clock gated state (Tick)
testsys.cpu_cluster.cpus1.power_state.ticksClkGated::stdev 2254343476.669941                       # Distribution of time spent in the clock gated state (Tick)
testsys.cpu_cluster.cpus1.power_state.ticksClkGated::underflows           12      0.87%      0.87% # Distribution of time spent in the clock gated state (Tick)
testsys.cpu_cluster.cpus1.power_state.ticksClkGated::1000-5e+10         1372     99.06%     99.93% # Distribution of time spent in the clock gated state (Tick)
testsys.cpu_cluster.cpus1.power_state.ticksClkGated::5e+10-1e+11            1      0.07%    100.00% # Distribution of time spent in the clock gated state (Tick)
testsys.cpu_cluster.cpus1.power_state.ticksClkGated::min_value          251                       # Distribution of time spent in the clock gated state (Tick)
testsys.cpu_cluster.cpus1.power_state.ticksClkGated::max_value  79805328750                       # Distribution of time spent in the clock gated state (Tick)
testsys.cpu_cluster.cpus1.power_state.ticksClkGated::total         1385                       # Distribution of time spent in the clock gated state (Tick)
testsys.cpu_cluster.cpus1.power_state.pwrStateResidencyTicks::ON   1918839866                       # Cumulative time (in ticks) in various power states (Tick)
testsys.cpu_cluster.cpus1.power_state.pwrStateResidencyTicks::CLK_GATED 282082977384                       # Cumulative time (in ticks) in various power states (Tick)
testsys.cpu_cluster.cpus1.thread_0.numInsts            0                       # Number of Instructions committed (Count)
testsys.cpu_cluster.cpus1.thread_0.numOps            0                       # Number of Ops committed (Count)
testsys.cpu_cluster.cpus1.thread_0.numMemRefs            0                       # Number of Memory References (Count)
testsys.cpu_cluster.cpus2.numCycles        1136008270                       # Number of cpu cycles simulated (Cycle)
testsys.cpu_cluster.cpus2.numWorkItemsStarted            0                       # Number of work items this cpu started (Count)
testsys.cpu_cluster.cpus2.numWorkItemsCompleted            0                       # Number of work items this cpu completed (Count)
testsys.cpu_cluster.cpus2.exec_context.thread_0.numInsts     26625115                       # Number of instructions committed (Count)
testsys.cpu_cluster.cpus2.exec_context.thread_0.numOps     28693152                       # Number of ops (including micro ops) committed (Count)
testsys.cpu_cluster.cpus2.exec_context.thread_0.numIntAluAccesses     26044908                       # Number of integer alu accesses (Count)
testsys.cpu_cluster.cpus2.exec_context.thread_0.numFpAluAccesses            0                       # Number of float alu accesses (Count)
testsys.cpu_cluster.cpus2.exec_context.thread_0.numVecAluAccesses            0                       # Number of vector alu accesses (Count)
testsys.cpu_cluster.cpus2.exec_context.thread_0.numCallsReturns       768986                       # Number of times a function call or return occured (Count)
testsys.cpu_cluster.cpus2.exec_context.thread_0.numCondCtrlInsts      3163477                       # Number of instructions that are conditional controls (Count)
testsys.cpu_cluster.cpus2.exec_context.thread_0.numIntInsts     26044908                       # Number of integer instructions (Count)
testsys.cpu_cluster.cpus2.exec_context.thread_0.numFpInsts            0                       # Number of float instructions (Count)
testsys.cpu_cluster.cpus2.exec_context.thread_0.numVecInsts            0                       # Number of vector instructions (Count)
testsys.cpu_cluster.cpus2.exec_context.thread_0.numIntRegReads     34321525                       # Number of times the integer registers were read (Count)
testsys.cpu_cluster.cpus2.exec_context.thread_0.numIntRegWrites     20290370                       # Number of times the integer registers were written (Count)
testsys.cpu_cluster.cpus2.exec_context.thread_0.numFpRegReads            0                       # Number of times the floating registers were read (Count)
testsys.cpu_cluster.cpus2.exec_context.thread_0.numFpRegWrites            0                       # Number of times the floating registers were written (Count)
testsys.cpu_cluster.cpus2.exec_context.thread_0.numVecRegReads            0                       # Number of times the vector registers were read (Count)
testsys.cpu_cluster.cpus2.exec_context.thread_0.numVecRegWrites            0                       # Number of times the vector registers were written (Count)
testsys.cpu_cluster.cpus2.exec_context.thread_0.numVecPredRegReads            0                       # Number of times the predicate registers were read (Count)
testsys.cpu_cluster.cpus2.exec_context.thread_0.numVecPredRegWrites            0                       # Number of times the predicate registers were written (Count)
testsys.cpu_cluster.cpus2.exec_context.thread_0.numCCRegReads      7467667                       # Number of times the CC registers were read (Count)
testsys.cpu_cluster.cpus2.exec_context.thread_0.numCCRegWrites      3550179                       # Number of times the CC registers were written (Count)
testsys.cpu_cluster.cpus2.exec_context.thread_0.numMemRefs     11018145                       # Number of memory refs (Count)
testsys.cpu_cluster.cpus2.exec_context.thread_0.numLoadInsts      7122936                       # Number of load instructions (Count)
testsys.cpu_cluster.cpus2.exec_context.thread_0.numStoreInsts      3895209                       # Number of store instructions (Count)
testsys.cpu_cluster.cpus2.exec_context.thread_0.numIdleCycles 1107315640.745431                       # Number of idle cycles (Cycle)
testsys.cpu_cluster.cpus2.exec_context.thread_0.numBusyCycles 28692629.254569                       # Number of busy cycles (Cycle)
testsys.cpu_cluster.cpus2.exec_context.thread_0.notIdleFraction     0.025257                       # Percentage of non-idle cycles (Ratio)
testsys.cpu_cluster.cpus2.exec_context.thread_0.idleFraction     0.974743                       # Percentage of idle cycles (Ratio)
testsys.cpu_cluster.cpus2.exec_context.thread_0.numBranches      4080491                       # Number of branches fetched (Count)
testsys.cpu_cluster.cpus2.exec_context.thread_0.statExecutedInstType::No_OpClass           22      0.00%      0.00% # Class of executed instruction. (Count)
testsys.cpu_cluster.cpus2.exec_context.thread_0.statExecutedInstType::IntAlu     17632356     61.45%     61.45% # Class of executed instruction. (Count)
testsys.cpu_cluster.cpus2.exec_context.thread_0.statExecutedInstType::IntMult        35563      0.12%     61.58% # Class of executed instruction. (Count)
testsys.cpu_cluster.cpus2.exec_context.thread_0.statExecutedInstType::IntDiv         7067      0.02%     61.60% # Class of executed instruction. (Count)
testsys.cpu_cluster.cpus2.exec_context.thread_0.statExecutedInstType::FloatAdd            0      0.00%     61.60% # Class of executed instruction. (Count)
testsys.cpu_cluster.cpus2.exec_context.thread_0.statExecutedInstType::FloatCmp            0      0.00%     61.60% # Class of executed instruction. (Count)
testsys.cpu_cluster.cpus2.exec_context.thread_0.statExecutedInstType::FloatCvt            0      0.00%     61.60% # Class of executed instruction. (Count)
testsys.cpu_cluster.cpus2.exec_context.thread_0.statExecutedInstType::FloatMult            0      0.00%     61.60% # Class of executed instruction. (Count)
testsys.cpu_cluster.cpus2.exec_context.thread_0.statExecutedInstType::FloatMultAcc            0      0.00%     61.60% # Class of executed instruction. (Count)
testsys.cpu_cluster.cpus2.exec_context.thread_0.statExecutedInstType::FloatDiv            0      0.00%     61.60% # Class of executed instruction. (Count)
testsys.cpu_cluster.cpus2.exec_context.thread_0.statExecutedInstType::FloatMisc            0      0.00%     61.60% # Class of executed instruction. (Count)
testsys.cpu_cluster.cpus2.exec_context.thread_0.statExecutedInstType::FloatSqrt            0      0.00%     61.60% # Class of executed instruction. (Count)
testsys.cpu_cluster.cpus2.exec_context.thread_0.statExecutedInstType::SimdAdd            0      0.00%     61.60% # Class of executed instruction. (Count)
testsys.cpu_cluster.cpus2.exec_context.thread_0.statExecutedInstType::SimdAddAcc            0      0.00%     61.60% # Class of executed instruction. (Count)
testsys.cpu_cluster.cpus2.exec_context.thread_0.statExecutedInstType::SimdAlu            0      0.00%     61.60% # Class of executed instruction. (Count)
testsys.cpu_cluster.cpus2.exec_context.thread_0.statExecutedInstType::SimdCmp            0      0.00%     61.60% # Class of executed instruction. (Count)
testsys.cpu_cluster.cpus2.exec_context.thread_0.statExecutedInstType::SimdCvt            0      0.00%     61.60% # Class of executed instruction. (Count)
testsys.cpu_cluster.cpus2.exec_context.thread_0.statExecutedInstType::SimdMisc            0      0.00%     61.60% # Class of executed instruction. (Count)
testsys.cpu_cluster.cpus2.exec_context.thread_0.statExecutedInstType::SimdMult            0      0.00%     61.60% # Class of executed instruction. (Count)
testsys.cpu_cluster.cpus2.exec_context.thread_0.statExecutedInstType::SimdMultAcc            0      0.00%     61.60% # Class of executed instruction. (Count)
testsys.cpu_cluster.cpus2.exec_context.thread_0.statExecutedInstType::SimdShift            0      0.00%     61.60% # Class of executed instruction. (Count)
testsys.cpu_cluster.cpus2.exec_context.thread_0.statExecutedInstType::SimdShiftAcc            0      0.00%     61.60% # Class of executed instruction. (Count)
testsys.cpu_cluster.cpus2.exec_context.thread_0.statExecutedInstType::SimdDiv            0      0.00%     61.60% # Class of executed instruction. (Count)
[...]
testsys.pci_devices3.EtherDevice.postedTxOk            0                       # Number of TxOk interrupts posted to CPU (Count)
testsys.pci_devices3.EtherDevice.totalTxOk            0                       # Total number of TxOk written to ISR (Count)
testsys.pci_devices3.EtherDevice.coalescedTxOk          nan                       # Average number of TxOk's coalesced into each post ((Count/Count))
testsys.pci_devices3.EtherDevice.postedTxIdle            0                       # Number of TxIdle interrupts posted to CPU (Count)
testsys.pci_devices3.EtherDevice.totalTxIdle            0                       # Total number of TxIdle written to ISR (Count)
testsys.pci_devices3.EtherDevice.coalescedTxIdle          nan                       # Average number of TxIdle's coalesced into each post ((Count/Count))
testsys.pci_devices3.EtherDevice.postedTxDesc            0                       # Number of TxDesc interrupts posted to CPU (Count)
testsys.pci_devices3.EtherDevice.totalTxDesc            0                       # Total number of TxDesc written to ISR (Count)
testsys.pci_devices3.EtherDevice.coalescedTxDesc          nan                       # Average number of TxDesc's coalesced into each post ((Count/Count))
testsys.pci_devices3.EtherDevice.postedRxOrn            0                       # Number of RxOrn posted to CPU (Count)
testsys.pci_devices3.EtherDevice.totalRxOrn            0                       # Total number of RxOrn written to ISR (Count)
testsys.pci_devices3.EtherDevice.coalescedRxOrn          nan                       # Average number of RxOrn's coalesced into each post ((Count/Count))
testsys.pci_devices3.EtherDevice.coalescedTotal          nan                       # Average number of interrupts coalesced into each post ((Count/Count))
testsys.pci_devices3.EtherDevice.droppedPackets            0                       # Number of packets dropped (Count)
testsys.pci_devices3.power_state.pwrStateResidencyTicks::UNDEFINED 284001817250                       # Cumulative time (in ticks) in various power states (Tick)
testsys.pci_devices4.EtherDevice.postedInterrupts            0                       # Number of posts to CPU (Count)
testsys.pci_devices4.EtherDevice.descDmaReads            0                       # Number of descriptors the device read w/ DMA (Count)
testsys.pci_devices4.EtherDevice.descDmaWrites            0                       # Number of descriptors the device wrote w/ DMA (Count)
testsys.pci_devices4.EtherDevice.descDmaRdBytes            0                       # Number of descriptor bytes read w/ DMA (Count)
testsys.pci_devices4.EtherDevice.descDmaWrBytes            0                       # Number of descriptor bytes write w/ DMA (Count)
testsys.pci_devices4.EtherDevice.postedSwi            0                       # Number of software interrupts posted to CPU (Count)
testsys.pci_devices4.EtherDevice.totalSwi            0                       # Total number of Swi written to ISR (Count)
testsys.pci_devices4.EtherDevice.coalescedSwi          nan                       # Average number of Swi's coalesced into each post ((Count/Count))
testsys.pci_devices4.EtherDevice.postedRxIdle            0                       # Number of rxIdle interrupts posted to CPU (Count)
testsys.pci_devices4.EtherDevice.totalRxIdle            0                       # Total number of RxIdle written to ISR (Count)
testsys.pci_devices4.EtherDevice.coalescedRxIdle          nan                       # Average number of RxIdle's coalesced into each post ((Count/Count))
testsys.pci_devices4.EtherDevice.postedRxOk            0                       # Number of RxOk interrupts posted to CPU (Count)
testsys.pci_devices4.EtherDevice.totalRxOk            0                       # Total number of RxOk written to ISR (Count)
testsys.pci_devices4.EtherDevice.coalescedRxOk          nan                       # Average number of RxOk's coalesced into each post ((Count/Count))
testsys.pci_devices4.EtherDevice.postedRxDesc            0                       # Number of RxDesc interrupts posted to CPU (Count)
testsys.pci_devices4.EtherDevice.totalRxDesc            0                       # Total number of RxDesc written to ISR (Count)
testsys.pci_devices4.EtherDevice.coalescedRxDesc          nan                       # Average number of RxDesc's coalesced into each post ((Count/Count))
testsys.pci_devices4.EtherDevice.postedTxOk            0                       # Number of TxOk interrupts posted to CPU (Count)
testsys.pci_devices4.EtherDevice.totalTxOk            0                       # Total number of TxOk written to ISR (Count)
testsys.pci_devices4.EtherDevice.coalescedTxOk          nan                       # Average number of TxOk's coalesced into each post ((Count/Count))
testsys.pci_devices4.EtherDevice.postedTxIdle            0                       # Number of TxIdle interrupts posted to CPU (Count)
testsys.pci_devices4.EtherDevice.totalTxIdle            0                       # Total number of TxIdle written to ISR (Count)
testsys.pci_devices4.EtherDevice.coalescedTxIdle          nan                       # Average number of TxIdle's coalesced into each post ((Count/Count))
testsys.pci_devices4.EtherDevice.postedTxDesc            0                       # Number of TxDesc interrupts posted to CPU (Count)
testsys.pci_devices4.EtherDevice.totalTxDesc            0                       # Total number of TxDesc written to ISR (Count)
testsys.pci_devices4.EtherDevice.coalescedTxDesc          nan                       # Average number of TxDesc's coalesced into each post ((Count/Count))
testsys.pci_devices4.EtherDevice.postedRxOrn            0                       # Number of RxOrn posted to CPU (Count)
testsys.pci_devices4.EtherDevice.totalRxOrn            0                       # Total number of RxOrn written to ISR (Count)
testsys.pci_devices4.EtherDevice.coalescedRxOrn          nan                       # Average number of RxOrn's coalesced into each post ((Count/Count))
testsys.pci_devices4.EtherDevice.coalescedTotal          nan                       # Average number of interrupts coalesced into each post ((Count/Count))
testsys.pci_devices4.EtherDevice.droppedPackets            0                       # Number of packets dropped (Count)
testsys.pci_devices4.power_state.pwrStateResidencyTicks::UNDEFINED 284001817250                       # Cumulative time (in ticks) in various power states (Tick)
testsys.realview.bootmem.bytesRead::cpu_cluster.cpus0.inst          108                       # Number of bytes read from this memory (Byte)
testsys.realview.bootmem.bytesRead::cpu_cluster.cpus0.data           28                       # Number of bytes read from this memory (Byte)
testsys.realview.bootmem.bytesRead::cpu_cluster.cpus1.inst           88                       # Number of bytes read from this memory (Byte)
testsys.realview.bootmem.bytesRead::cpu_cluster.cpus1.data            8                       # Number of bytes read from this memory (Byte)
testsys.realview.bootmem.bytesRead::cpu_cluster.cpus2.inst           88                       # Number of bytes read from this memory (Byte)
testsys.realview.bootmem.bytesRead::cpu_cluster.cpus2.data            8                       # Number of bytes read from this memory (Byte)
testsys.realview.bootmem.bytesRead::cpu_cluster.cpus3.inst           88                       # Number of bytes read from this memory (Byte)
testsys.realview.bootmem.bytesRead::cpu_cluster.cpus3.data            8                       # Number of bytes read from this memory (Byte)
testsys.realview.bootmem.bytesRead::total          424                       # Number of bytes read from this memory (Byte)
testsys.realview.bootmem.bytesInstRead::cpu_cluster.cpus0.inst          108                       # Number of instructions bytes read from this memory (Byte)
testsys.realview.bootmem.bytesInstRead::cpu_cluster.cpus1.inst           88                       # Number of instructions bytes read from this memory (Byte)
testsys.realview.bootmem.bytesInstRead::cpu_cluster.cpus2.inst           88                       # Number of instructions bytes read from this memory (Byte)
testsys.realview.bootmem.bytesInstRead::cpu_cluster.cpus3.inst           88                       # Number of instructions bytes read from this memory (Byte)
testsys.realview.bootmem.bytesInstRead::total          372                       # Number of instructions bytes read from this memory (Byte)
testsys.realview.bootmem.numReads::cpu_cluster.cpus0.inst           27                       # Number of read requests responded to by this memory (Count)
testsys.realview.bootmem.numReads::cpu_cluster.cpus0.data            4                       # Number of read requests responded to by this memory (Count)
testsys.realview.bootmem.numReads::cpu_cluster.cpus1.inst           22                       # Number of read requests responded to by this memory (Count)
testsys.realview.bootmem.numReads::cpu_cluster.cpus1.data            1                       # Number of read requests responded to by this memory (Count)
testsys.realview.bootmem.numReads::cpu_cluster.cpus2.inst           22                       # Number of read requests responded to by this memory (Count)
testsys.realview.bootmem.numReads::cpu_cluster.cpus2.data            1                       # Number of read requests responded to by this memory (Count)
testsys.realview.bootmem.numReads::cpu_cluster.cpus3.inst           22                       # Number of read requests responded to by this memory (Count)
testsys.realview.bootmem.numReads::cpu_cluster.cpus3.data            1                       # Number of read requests responded to by this memory (Count)
testsys.realview.bootmem.numReads::total          100                       # Number of read requests responded to by this memory (Count)
testsys.realview.bootmem.bwRead::cpu_cluster.cpus0.inst          380                       # Total read bandwidth from this memory ((Byte/Second))
testsys.realview.bootmem.bwRead::cpu_cluster.cpus0.data           99                       # Total read bandwidth from this memory ((Byte/Second))
testsys.realview.bootmem.bwRead::cpu_cluster.cpus1.inst          310                       # Total read bandwidth from this memory ((Byte/Second))
testsys.realview.bootmem.bwRead::cpu_cluster.cpus1.data           28                       # Total read bandwidth from this memory ((Byte/Second))
testsys.realview.bootmem.bwRead::cpu_cluster.cpus2.inst          310                       # Total read bandwidth from this memory ((Byte/Second))
testsys.realview.bootmem.bwRead::cpu_cluster.cpus2.data           28                       # Total read bandwidth from this memory ((Byte/Second))
testsys.realview.bootmem.bwRead::cpu_cluster.cpus3.inst          310                       # Total read bandwidth from this memory ((Byte/Second))
testsys.realview.bootmem.bwRead::cpu_cluster.cpus3.data           28                       # Total read bandwidth from this memory ((Byte/Second))
testsys.realview.bootmem.bwRead::total           1493                       # Total read bandwidth from this memory ((Byte/Second))
testsys.realview.bootmem.bwInstRead::cpu_cluster.cpus0.inst          380                       # Instruction read bandwidth from this memory ((Byte/Second))
testsys.realview.bootmem.bwInstRead::cpu_cluster.cpus1.inst          310                       # Instruction read bandwidth from this memory ((Byte/Second))
testsys.realview.bootmem.bwInstRead::cpu_cluster.cpus2.inst          310                       # Instruction read bandwidth from this memory ((Byte/Second))
testsys.realview.bootmem.bwInstRead::cpu_cluster.cpus3.inst          310                       # Instruction read bandwidth from this memory ((Byte/Second))
testsys.realview.bootmem.bwInstRead::total         1310                       # Instruction read bandwidth from this memory ((Byte/Second))
testsys.realview.bootmem.bwTotal::cpu_cluster.cpus0.inst          380                       # Total bandwidth to/from this memory ((Byte/Second))
testsys.realview.bootmem.bwTotal::cpu_cluster.cpus0.data           99                       # Total bandwidth to/from this memory ((Byte/Second))
testsys.realview.bootmem.bwTotal::cpu_cluster.cpus1.inst          310                       # Total bandwidth to/from this memory ((Byte/Second))
testsys.realview.bootmem.bwTotal::cpu_cluster.cpus1.data           28                       # Total bandwidth to/from this memory ((Byte/Second))
testsys.realview.bootmem.bwTotal::cpu_cluster.cpus2.inst          310                       # Total bandwidth to/from this memory ((Byte/Second))
testsys.realview.bootmem.bwTotal::cpu_cluster.cpus2.data           28                       # Total bandwidth to/from this memory ((Byte/Second))
testsys.realview.bootmem.bwTotal::cpu_cluster.cpus3.inst          310                       # Total bandwidth to/from this memory ((Byte/Second))
testsys.realview.bootmem.bwTotal::cpu_cluster.cpus3.data           28                       # Total bandwidth to/from this memory ((Byte/Second))
testsys.realview.bootmem.bwTotal::total          1493                       # Total bandwidth to/from this memory ((Byte/Second))
testsys.realview.bootmem.power_state.pwrStateResidencyTicks::UNDEFINED 284001817250                       # Cumulative time (in ticks) in various power states (Tick)
testsys.realview.clock24MHz.clock               41667                       # Clock period in ticks (Tick)
testsys.realview.clock32KHz.clock            31250000                       # Clock period in ticks (Tick)
testsys.realview.dcc.osc_cpu.clock              16667                       # Clock period in ticks (Tick)
testsys.realview.dcc.osc_ddr.clock              25000                       # Clock period in ticks (Tick)
testsys.realview.dcc.osc_hsbm.clock             25000                       # Clock period in ticks (Tick)
testsys.realview.dcc.osc_pxl.clock              42105                       # Clock period in ticks (Tick)
testsys.realview.dcc.osc_smb.clock              20000                       # Clock period in ticks (Tick)
testsys.realview.dcc.osc_sys.clock              16667                       # Clock period in ticks (Tick)
testsys.realview.el2_watchdog.power_state.pwrStateResidencyTicks::UNDEFINED 284001817250                       # Cumulative time (in ticks) in various power states (Tick)
testsys.realview.energy_ctrl.power_state.pwrStateResidencyTicks::UNDEFINED 284001817250                       # Cumulative time (in ticks) in various power states (Tick)
testsys.realview.flash0.power_state.pwrStateResidencyTicks::UNDEFINED 284001817250                       # Cumulative time (in ticks) in various power states (Tick)
testsys.realview.flash1.power_state.pwrStateResidencyTicks::UNDEFINED 284001817250                       # Cumulative time (in ticks) in various power states (Tick)
testsys.realview.generic_timer_mem.frames0.power_state.pwrStateResidencyTicks::UNDEFINED 284001817250                       # Cumulative time (in ticks) in various power states (Tick)
testsys.realview.generic_timer_mem.frames1.power_state.pwrStateResidencyTicks::UNDEFINED 284001817250                       # Cumulative time (in ticks) in various power states (Tick)
testsys.realview.generic_timer_mem.power_state.pwrStateResidencyTicks::UNDEFINED 284001817250                       # Cumulative time (in ticks) in various power states (Tick)
testsys.realview.gic.power_state.pwrStateResidencyTicks::UNDEFINED 284001817250                       # Cumulative time (in ticks) in various power states (Tick)
testsys.realview.gicv2m.power_state.pwrStateResidencyTicks::UNDEFINED 284001817250                       # Cumulative time (in ticks) in various power states (Tick)
testsys.realview.io_voltage.voltage          3.300000                       # Voltage in Volts (Volt)
testsys.realview.kmi0.power_state.pwrStateResidencyTicks::UNDEFINED 284001817250                       # Cumulative time (in ticks) in various power states (Tick)
testsys.realview.kmi1.power_state.pwrStateResidencyTicks::UNDEFINED 284001817250                       # Cumulative time (in ticks) in various power states (Tick)
testsys.realview.mcc.osc_clcd.clock             42105                       # Clock period in ticks (Tick)
testsys.realview.mcc.osc_mcc.clock              20000                       # Clock period in ticks (Tick)
testsys.realview.mcc.osc_peripheral.clock        41667                       # Clock period in ticks (Tick)
testsys.realview.mcc.osc_system_bus.clock        41667                       # Clock period in ticks (Tick)
testsys.realview.non_trusted_sram.power_state.pwrStateResidencyTicks::UNDEFINED 284001817250                       # Cumulative time (in ticks) in various power states (Tick)
testsys.realview.pci_host.power_state.pwrStateResidencyTicks::UNDEFINED 284001817250                       # Cumulative time (in ticks) in various power states (Tick)
testsys.realview.pwr_ctrl.power_state.pwrStateResidencyTicks::UNDEFINED 284001817250                       # Cumulative time (in ticks) in various power states (Tick)
testsys.realview.realview_io.power_state.pwrStateResidencyTicks::UNDEFINED 284001817250                       # Cumulative time (in ticks) in various power states (Tick)
testsys.realview.rtc.power_state.pwrStateResidencyTicks::UNDEFINED 284001817250                       # Cumulative time (in ticks) in various power states (Tick)
testsys.realview.system_watchdog.power_state.pwrStateResidencyTicks::UNDEFINED 284001817250                       # Cumulative time (in ticks) in various power states (Tick)
testsys.realview.trusted_sram.power_state.pwrStateResidencyTicks::UNDEFINED 284001817250                       # Cumulative time (in ticks) in various power states (Tick)
testsys.realview.trusted_watchdog.power_state.pwrStateResidencyTicks::UNDEFINED 284001817250                       # Cumulative time (in ticks) in various power states (Tick)
testsys.realview.uart0.power_state.pwrStateResidencyTicks::UNDEFINED 284001817250                       # Cumulative time (in ticks) in various power states (Tick)
testsys.realview.uart1.power_state.pwrStateResidencyTicks::UNDEFINED 284001817250                       # Cumulative time (in ticks) in various power states (Tick)
testsys.realview.uart2.power_state.pwrStateResidencyTicks::UNDEFINED 284001817250                       # Cumulative time (in ticks) in various power states (Tick)
testsys.realview.uart3.power_state.pwrStateResidencyTicks::UNDEFINED 284001817250                       # Cumulative time (in ticks) in various power states (Tick)
testsys.realview.vgic.power_state.pwrStateResidencyTicks::UNDEFINED 284001817250                       # Cumulative time (in ticks) in various power states (Tick)
testsys.realview.vio0.power_state.pwrStateResidencyTicks::UNDEFINED 284001817250                       # Cumulative time (in ticks) in various power states (Tick)
testsys.realview.vio1.power_state.pwrStateResidencyTicks::UNDEFINED 284001817250                       # Cumulative time (in ticks) in various power states (Tick)
testsys.realview.vram.power_state.pwrStateResidencyTicks::UNDEFINED 284001817250                       # Cumulative time (in ticks) in various power states (Tick)
testsys.realview.watchdog.power_state.pwrStateResidencyTicks::UNDEFINED 284001817250                       # Cumulative time (in ticks) in various power states (Tick)
testsys.voltage_domain.voltage                      1                       # Voltage in Volts (Volt)
testsys.workload.inst.arm                           0                       # number of arm instructions executed (Count)
testsys.workload.inst.quiesce                    5054                       # number of quiesce instructions executed (Count)

---------- End Simulation Statistics   ----------
