
---------- Begin Simulation Statistics ----------
simSeconds                                   0.001414                       # Number of seconds simulated (Second)
simTicks                                   1413758000                       # Number of ticks simulated (Tick)
finalTick                                488022361250                       # Number of ticks from beginning of simulation (restored from checkpoints and never reset) (Tick)
simFreq                                  1000000000000                       # The number of ticks per simulated second ((Tick/Second))
hostSeconds                                      2.99                       # Real time elapsed on the host (Second)
hostTickRate                                473170268                       # The number of ticks simulated per host second (ticks/s) ((Tick/Second))
hostMemory                                  407599264                       # Number of bytes of host memory used (Byte)
simInsts                                      9207791                       # Number of instructions simulated (Count)
simOps                                       10336221                       # Number of ops (including micro ops) simulated (Count)
hostInstRate                                  3081719                       # Simulator instruction rate (inst/s) ((Count/Second))
hostOpRate                                    3459381                       # Simulator op (including micro ops) rate (op/s) ((Count/Second))
testsys.clk_domain.clock                         1000                       # Clock period in ticks (Tick)
testsys.cpu_cluster.clk_domain.clock              250                       # Clock period in ticks (Tick)
testsys.cpu_cluster.cpus0.numCycles           5208299                       # Number of cpu cycles simulated (Cycle)
testsys.cpu_cluster.cpus0.numWorkItemsStarted            0                       # Number of work items this cpu started (Count)
testsys.cpu_cluster.cpus0.numWorkItemsCompleted            0                       # Number of work items this cpu completed (Count)
testsys.cpu_cluster.cpus0.exec_context.thread_0.numInsts        65593                       # Number of instructions committed (Count)
testsys.cpu_cluster.cpus0.exec_context.thread_0.numOps        79999                       # Number of ops (including micro ops) committed (Count)
testsys.cpu_cluster.cpus0.exec_context.thread_0.numIntAluAccesses        75004                       # Number of integer alu accesses (Count)
testsys.cpu_cluster.cpus0.exec_context.thread_0.numFpAluAccesses            0                       # Number of float alu accesses (Count)
testsys.cpu_cluster.cpus0.exec_context.thread_0.numVecAluAccesses            0                       # Number of vector alu accesses (Count)
testsys.cpu_cluster.cpus0.exec_context.thread_0.numCallsReturns         5296                       # Number of times a function call or return occured (Count)
testsys.cpu_cluster.cpus0.exec_context.thread_0.numCondCtrlInsts         6895                       # Number of instructions that are conditional controls (Count)
testsys.cpu_cluster.cpus0.exec_context.thread_0.numIntInsts        75004                       # Number of integer instructions (Count)
testsys.cpu_cluster.cpus0.exec_context.thread_0.numFpInsts            0                       # Number of float instructions (Count)
testsys.cpu_cluster.cpus0.exec_context.thread_0.numVecInsts            0                       # Number of vector instructions (Count)
testsys.cpu_cluster.cpus0.exec_context.thread_0.numIntRegReads       101452                       # Number of times the integer registers were read (Count)
testsys.cpu_cluster.cpus0.exec_context.thread_0.numIntRegWrites        61162                       # Number of times the integer registers were written (Count)
testsys.cpu_cluster.cpus0.exec_context.thread_0.numFpRegReads            0                       # Number of times the floating registers were read (Count)
testsys.cpu_cluster.cpus0.exec_context.thread_0.numFpRegWrites            0                       # Number of times the floating registers were written (Count)
testsys.cpu_cluster.cpus0.exec_context.thread_0.numVecRegReads            0                       # Number of times the vector registers were read (Count)
testsys.cpu_cluster.cpus0.exec_context.thread_0.numVecRegWrites            0                       # Number of times the vector registers were written (Count)
testsys.cpu_cluster.cpus0.exec_context.thread_0.numVecPredRegReads            0                       # Number of times the predicate registers were read (Count)
testsys.cpu_cluster.cpus0.exec_context.thread_0.numVecPredRegWrites            0                       # Number of times the predicate registers were written (Count)
testsys.cpu_cluster.cpus0.exec_context.thread_0.numCCRegReads         8901                       # Number of times the CC registers were read (Count)
testsys.cpu_cluster.cpus0.exec_context.thread_0.numCCRegWrites         8808                       # Number of times the CC registers were written (Count)
testsys.cpu_cluster.cpus0.exec_context.thread_0.numMemRefs        28114                       # Number of memory refs (Count)
testsys.cpu_cluster.cpus0.exec_context.thread_0.numLoadInsts        15817                       # Number of load instructions (Count)
testsys.cpu_cluster.cpus0.exec_context.thread_0.numStoreInsts        12297                       # Number of store instructions (Count)
testsys.cpu_cluster.cpus0.exec_context.thread_0.numIdleCycles 5134634.503149                       # Number of idle cycles (Cycle)
testsys.cpu_cluster.cpus0.exec_context.thread_0.numBusyCycles 73664.496851                       # Number of busy cycles (Cycle)
testsys.cpu_cluster.cpus0.exec_context.thread_0.notIdleFraction     0.014144                       # Percentage of non-idle cycles (Ratio)
testsys.cpu_cluster.cpus0.exec_context.thread_0.idleFraction     0.985856                       # Percentage of idle cycles (Ratio)
testsys.cpu_cluster.cpus0.exec_context.thread_0.numBranches        12819                       # Number of branches fetched (Count)
testsys.cpu_cluster.cpus0.exec_context.thread_0.statExecutedInstType::No_OpClass            0      0.00%      0.00% # Class of executed instruction. (Count)
testsys.cpu_cluster.cpus0.exec_context.thread_0.statExecutedInstType::IntAlu        51590     64.49%     64.49% # Class of executed instruction. (Count)
testsys.cpu_cluster.cpus0.exec_context.thread_0.statExecutedInstType::IntMult          279      0.35%     64.84% # Class of executed instruction. (Count)
testsys.cpu_cluster.cpus0.exec_context.thread_0.statExecutedInstType::IntDiv           16      0.02%     64.86% # Class of executed instruction. (Count)
testsys.cpu_cluster.cpus0.exec_context.thread_0.statExecutedInstType::FloatAdd            0      0.00%     64.86% # Class of executed instruction. (Count)
testsys.cpu_cluster.cpus0.exec_context.thread_0.statExecutedInstType::FloatCmp            0      0.00%     64.86% # Class of executed instruction. (Count)
testsys.cpu_cluster.cpus0.exec_context.thread_0.statExecutedInstType::FloatCvt            0      0.00%     64.86% # Class of executed instruction. (Count)
testsys.cpu_cluster.cpus0.exec_context.thread_0.statExecutedInstType::FloatMult            0      0.00%     64.86% # Class of executed instruction. (Count)
testsys.cpu_cluster.cpus0.exec_context.thread_0.statExecutedInstType::FloatMultAcc            0      0.00%     64.86% # Class of executed instruction. (Count)
testsys.cpu_cluster.cpus0.exec_context.thread_0.statExecutedInstType::FloatDiv            0      0.00%     64.86% # Class of executed instruction. (Count)
testsys.cpu_cluster.cpus0.exec_context.thread_0.statExecutedInstType::FloatMisc            0      0.00%     64.86% # Class of executed instruction. (Count)
testsys.cpu_cluster.cpus0.exec_context.thread_0.statExecutedInstType::FloatSqrt            0      0.00%     64.86% # Class of executed instruction. (Count)
testsys.cpu_cluster.cpus0.exec_context.thread_0.statExecutedInstType::SimdAdd            0      0.00%     64.86% # Class of executed instruction. (Count)
testsys.cpu_cluster.cpus0.exec_context.thread_0.statExecutedInstType::SimdAddAcc            0      0.00%     64.86% # Class of executed instruction. (Count)
testsys.cpu_cluster.cpus0.exec_context.thread_0.statExecutedInstType::SimdAlu            0      0.00%     64.86% # Class of executed instruction. (Count)
testsys.cpu_cluster.cpus0.exec_context.thread_0.statExecutedInstType::SimdCmp            0      0.00%     64.86% # Class of executed instruction. (Count)
testsys.cpu_cluster.cpus0.exec_context.thread_0.statExecutedInstType::SimdCvt            0      0.00%     64.86% # Class of executed instruction. (Count)
testsys.cpu_cluster.cpus0.exec_context.thread_0.statExecutedInstType::SimdMisc            0      0.00%     64.86% # Class of executed instruction. (Count)
testsys.cpu_cluster.cpus0.exec_context.thread_0.statExecutedInstType::SimdMult            0      0.00%     64.86% # Class of executed instruction. (Count)
testsys.cpu_cluster.cpus0.exec_context.thread_0.statExecutedInstType::SimdMultAcc            0      0.00%     64.86% # Class of executed instruction. (Count)
testsys.cpu_cluster.cpus0.exec_context.thread_0.statExecutedInstType::SimdShift            0      0.00%     64.86% # Class of executed instruction. (Count)
testsys.cpu_cluster.cpus0.exec_context.thread_0.statExecutedInstType::SimdShiftAcc            0      0.00%     64.86% # Class of executed instruction. (Count)
testsys.cpu_cluster.cpus0.exec_context.thread_0.statExecutedInstType::SimdDiv            0      0.00%     64.86% # Class of executed instruction. (Count)
testsys.cpu_cluster.cpus0.exec_context.thread_0.statExecutedInstType::SimdSqrt            0      0.00%     64.86% # Class of executed instruction. (Count)
testsys.cpu_cluster.cpus0.exec_context.thread_0.statExecutedInstType::SimdFloatAdd            0      0.00%     64.86% # Class of executed instruction. (Count)
testsys.cpu_cluster.cpus0.exec_context.thread_0.statExecutedInstType::SimdFloatAlu            0      0.00%     64.86% # Class of executed instruction. (Count)
testsys.cpu_cluster.cpus0.exec_context.thread_0.statExecutedInstType::SimdFloatCmp            0      0.00%     64.86% # Class of executed instruction. (Count)
testsys.cpu_cluster.cpus0.exec_context.thread_0.statExecutedInstType::SimdFloatCvt            0      0.00%     64.86% # Class of executed instruction. (Count)
testsys.cpu_cluster.cpus0.exec_context.thread_0.statExecutedInstType::SimdFloatDiv            0      0.00%     64.86% # Class of executed instruction. (Count)
testsys.cpu_cluster.cpus0.exec_context.thread_0.statExecutedInstType::SimdFloatMisc            0      0.00%     64.86% # Class of executed instruction. (Count)
testsys.cpu_cluster.cpus0.exec_context.thread_0.statExecutedInstType::SimdFloatMult            0      0.00%     64.86% # Class of executed instruction. (Count)
testsys.cpu_cluster.cpus0.exec_context.thread_0.statExecutedInstType::SimdFloatMultAcc            0      0.00%     64.86% # Class of executed instruction. (Count)
testsys.cpu_cluster.cpus0.exec_context.thread_0.statExecutedInstType::SimdFloatSqrt            0      0.00%     64.86% # Class of executed instruction. (Count)
testsys.cpu_cluster.cpus0.exec_context.thread_0.statExecutedInstType::SimdReduceAdd            0      0.00%     64.86% # Class of executed instruction. (Count)
testsys.cpu_cluster.cpus0.exec_context.thread_0.statExecutedInstType::SimdReduceAlu            0      0.00%     64.86% # Class of executed instruction. (Count)
testsys.cpu_cluster.cpus0.exec_context.thread_0.statExecutedInstType::SimdReduceCmp            0      0.00%     64.86% # Class of executed instruction. (Count)
testsys.cpu_cluster.cpus0.exec_context.thread_0.statExecutedInstType::SimdFloatReduceAdd            0      0.00%     64.86% # Class of executed instruction. (Count)
testsys.cpu_cluster.cpus0.exec_context.thread_0.statExecutedInstType::SimdFloatReduceCmp            0      0.00%     64.86% # Class of executed instruction. (Count)
testsys.cpu_cluster.cpus0.exec_context.thread_0.statExecutedInstType::SimdAes            0      0.00%     64.86% # Class of executed instruction. (Count)
testsys.cpu_cluster.cpus0.exec_context.thread_0.statExecutedInstType::SimdAesMix            0      0.00%     64.86% # Class of executed instruction. (Count)
testsys.cpu_cluster.cpus0.exec_context.thread_0.statExecutedInstType::SimdSha1Hash            0      0.00%     64.86% # Class of executed instruction. (Count)
testsys.cpu_cluster.cpus0.exec_context.thread_0.statExecutedInstType::SimdSha1Hash2            0      0.00%     64.86% # Class of executed instruction. (Count)
testsys.cpu_cluster.cpus0.exec_context.thread_0.statExecutedInstType::SimdSha256Hash            0      0.00%     64.86% # Class of executed instruction. (Count)
testsys.cpu_cluster.cpus0.exec_context.thread_0.statExecutedInstType::SimdSha256Hash2            0      0.00%     64.86% # Class of executed instruction. (Count)
testsys.cpu_cluster.cpus0.exec_context.thread_0.statExecutedInstType::SimdShaSigma2            0      0.00%     64.86% # Class of executed instruction. (Count)
testsys.cpu_cluster.cpus0.exec_context.thread_0.statExecutedInstType::SimdShaSigma3            0      0.00%     64.86% # Class of executed instruction. (Count)
testsys.cpu_cluster.cpus0.exec_context.thread_0.statExecutedInstType::SimdPredAlu            0      0.00%     64.86% # Class of executed instruction. (Count)
testsys.cpu_cluster.cpus0.exec_context.thread_0.statExecutedInstType::MemRead        15817     19.77%     84.63% # Class of executed instruction. (Count)
testsys.cpu_cluster.cpus0.exec_context.thread_0.statExecutedInstType::MemWrite        12297     15.37%    100.00% # Class of executed instruction. (Count)
testsys.cpu_cluster.cpus0.exec_context.thread_0.statExecutedInstType::FloatMemRead            0      0.00%    100.00% # Class of executed instruction. (Count)
testsys.cpu_cluster.cpus0.exec_context.thread_0.statExecutedInstType::FloatMemWrite            0      0.00%    100.00% # Class of executed instruction. (Count)
testsys.cpu_cluster.cpus0.exec_context.thread_0.statExecutedInstType::IprAccess            0      0.00%    100.00% # Class of executed instruction. (Count)
testsys.cpu_cluster.cpus0.exec_context.thread_0.statExecutedInstType::InstPrefetch            0      0.00%    100.00% # Class of executed instruction. (Count)
testsys.cpu_cluster.cpus0.exec_context.thread_0.statExecutedInstType::total        79999                       # Class of executed instruction. (Count)
testsys.cpu_cluster.cpus0.mmu.dtb.instHits            0                       # ITB inst hits (Count)
testsys.cpu_cluster.cpus0.mmu.dtb.instMisses            0                       # ITB inst misses (Count)
testsys.cpu_cluster.cpus0.mmu.dtb.readHits        15648                       # DTB read hits (Count)
testsys.cpu_cluster.cpus0.mmu.dtb.readMisses          173                       # DTB read misses (Count)
testsys.cpu_cluster.cpus0.mmu.dtb.writeHits        12272                       # DTB write hits (Count)
testsys.cpu_cluster.cpus0.mmu.dtb.writeMisses           25                       # DTB write misses (Count)
testsys.cpu_cluster.cpus0.mmu.dtb.inserts          198                       # Number of times an entry is inserted into the TLB (Count)
testsys.cpu_cluster.cpus0.mmu.dtb.flushTlb            0                       # Number of times complete TLB was flushed (Count)
testsys.cpu_cluster.cpus0.mmu.dtb.flushTlbMva            0                       # Number of times TLB was flushed by MVA (Count)
testsys.cpu_cluster.cpus0.mmu.dtb.flushTlbMvaAsid           38                       # Number of times TLB was flushed by MVA & ASID (Count)
testsys.cpu_cluster.cpus0.mmu.dtb.flushTlbAsid            3                       # Number of times TLB was flushed by ASID (Count)
testsys.cpu_cluster.cpus0.mmu.dtb.flushedEntries            0                       # Number of entries that have been flushed from TLB (Count)
testsys.cpu_cluster.cpus0.mmu.dtb.alignFaults            0                       # Number of TLB faults due to alignment restrictions (Count)
testsys.cpu_cluster.cpus0.mmu.dtb.prefetchFaults            0                       # Number of TLB faults due to prefetch (Count)
testsys.cpu_cluster.cpus0.mmu.dtb.domainFaults            0                       # Number of TLB faults due to domain restrictions (Count)
testsys.cpu_cluster.cpus0.mmu.dtb.permsFaults            0                       # Number of TLB faults due to permissions restrictions (Count)
testsys.cpu_cluster.cpus0.mmu.dtb.readAccesses        15821                       # DTB read accesses (Count)
testsys.cpu_cluster.cpus0.mmu.dtb.writeAccesses        12297                       # DTB write accesses (Count)
testsys.cpu_cluster.cpus0.mmu.dtb.instAccesses            0                       # ITB inst accesses (Count)
testsys.cpu_cluster.cpus0.mmu.dtb.hits          27920                       # Total TLB (inst and data) hits (Count)
testsys.cpu_cluster.cpus0.mmu.dtb.misses          198                       # Total TLB (inst and data) misses (Count)
testsys.cpu_cluster.cpus0.mmu.dtb.accesses        28118                       # Total TLB (inst and data) accesses (Count)
testsys.cpu_cluster.cpus0.mmu.dtb_walker.walks          198                       # Table walker walks requested (Count)
testsys.cpu_cluster.cpus0.mmu.dtb_walker.walksLongDescriptor          198                       # Table walker walks initiated with long descriptors (Count)
testsys.cpu_cluster.cpus0.mmu.dtb_walker.walkWaitTime::samples          198                       # Table walker wait (enqueue to first request) latency (Tick)
testsys.cpu_cluster.cpus0.mmu.dtb_walker.walkWaitTime::0          198    100.00%    100.00% # Table walker wait (enqueue to first request) latency (Tick)
testsys.cpu_cluster.cpus0.mmu.dtb_walker.walkWaitTime::total          198                       # Table walker wait (enqueue to first request) latency (Tick)
testsys.cpu_cluster.cpus0.mmu.dtb_walker.pageSizes::4KiB          188     94.95%     94.95% # Table walker page sizes translated (Count)
testsys.cpu_cluster.cpus0.mmu.dtb_walker.pageSizes::2MiB           10      5.05%    100.00% # Table walker page sizes translated (Count)
testsys.cpu_cluster.cpus0.mmu.dtb_walker.pageSizes::total          198                       # Table walker page sizes translated (Count)
testsys.cpu_cluster.cpus0.mmu.dtb_walker.requestOrigin_Requested::Data          198                       # Table walker requests started/completed, data/inst (Count)
testsys.cpu_cluster.cpus0.mmu.dtb_walker.requestOrigin_Requested::Inst            0                       # Table walker requests started/completed, data/inst (Count)
testsys.cpu_cluster.cpus0.mmu.dtb_walker.requestOrigin_Requested::total          198                       # Table walker requests started/completed, data/inst (Count)
testsys.cpu_cluster.cpus0.mmu.dtb_walker.requestOrigin_Completed::Data          198                       # Table walker requests started/completed, data/inst (Count)
testsys.cpu_cluster.cpus0.mmu.dtb_walker.requestOrigin_Completed::Inst            0                       # Table walker requests started/completed, data/inst (Count)
testsys.cpu_cluster.cpus0.mmu.dtb_walker.requestOrigin_Completed::total          198                       # Table walker requests started/completed, data/inst (Count)
testsys.cpu_cluster.cpus0.mmu.dtb_walker.requestOrigin::total          396                       # Table walker requests started/completed, data/inst (Count)
testsys.cpu_cluster.cpus0.mmu.dtb_walker.power_state.pwrStateResidencyTicks::UNDEFINED 488022361250                       # Cumulative time (in ticks) in various power states (Tick)
testsys.cpu_cluster.cpus0.mmu.itb.instHits        65592                       # ITB inst hits (Count)
testsys.cpu_cluster.cpus0.mmu.itb.instMisses            1                       # ITB inst misses (Count)
testsys.cpu_cluster.cpus0.mmu.itb.readHits            0                       # DTB read hits (Count)
testsys.cpu_cluster.cpus0.mmu.itb.readMisses            0                       # DTB read misses (Count)
testsys.cpu_cluster.cpus0.mmu.itb.writeHits            0                       # DTB write hits (Count)
testsys.cpu_cluster.cpus0.mmu.itb.writeMisses            0                       # DTB write misses (Count)
testsys.cpu_cluster.cpus0.mmu.itb.inserts            1                       # Number of times an entry is inserted into the TLB (Count)
testsys.cpu_cluster.cpus0.mmu.itb.flushTlb            0                       # Number of times complete TLB was flushed (Count)
testsys.cpu_cluster.cpus0.mmu.itb.flushTlbMva            0                       # Number of times TLB was flushed by MVA (Count)
testsys.cpu_cluster.cpus0.mmu.itb.flushTlbMvaAsid           38                       # Number of times TLB was flushed by MVA & ASID (Count)
testsys.cpu_cluster.cpus0.mmu.itb.flushTlbAsid            3                       # Number of times TLB was flushed by ASID (Count)
testsys.cpu_cluster.cpus0.mmu.itb.flushedEntries            0                       # Number of entries that have been flushed from TLB (Count)
testsys.cpu_cluster.cpus0.mmu.itb.alignFaults            0                       # Number of TLB faults due to alignment restrictions (Count)
testsys.cpu_cluster.cpus0.mmu.itb.prefetchFaults            0                       # Number of TLB faults due to prefetch (Count)
testsys.cpu_cluster.cpus0.mmu.itb.domainFaults            0                       # Number of TLB faults due to domain restrictions (Count)
testsys.cpu_cluster.cpus0.mmu.itb.permsFaults            0                       # Number of TLB faults due to permissions restrictions (Count)
testsys.cpu_cluster.cpus0.mmu.itb.readAccesses            0                       # DTB read accesses (Count)
testsys.cpu_cluster.cpus0.mmu.itb.writeAccesses            0                       # DTB write accesses (Count)
testsys.cpu_cluster.cpus0.mmu.itb.instAccesses        65593                       # ITB inst accesses (Count)
testsys.cpu_cluster.cpus0.mmu.itb.hits          65592                       # Total TLB (inst and data) hits (Count)
testsys.cpu_cluster.cpus0.mmu.itb.misses            1                       # Total TLB (inst and data) misses (Count)
testsys.cpu_cluster.cpus0.mmu.itb.accesses        65593                       # Total TLB (inst and data) accesses (Count)
testsys.cpu_cluster.cpus0.mmu.itb_walker.walks            1                       # Table walker walks requested (Count)
testsys.cpu_cluster.cpus0.mmu.itb_walker.walksLongDescriptor            1                       # Table walker walks initiated with long descriptors (Count)
testsys.cpu_cluster.cpus0.mmu.itb_walker.walkWaitTime::samples            1                       # Table walker wait (enqueue to first request) latency (Tick)
testsys.cpu_cluster.cpus0.mmu.itb_walker.walkWaitTime::0            1    100.00%    100.00% # Table walker wait (enqueue to first request) latency (Tick)
testsys.cpu_cluster.cpus0.mmu.itb_walker.walkWaitTime::total            1                       # Table walker wait (enqueue to first request) latency (Tick)
testsys.cpu_cluster.cpus0.mmu.itb_walker.pageSizes::4KiB            1    100.00%    100.00% # Table walker page sizes translated (Count)
testsys.cpu_cluster.cpus0.mmu.itb_walker.pageSizes::total            1                       # Table walker page sizes translated (Count)
testsys.cpu_cluster.cpus0.mmu.itb_walker.requestOrigin_Requested::Data            0                       # Table walker requests started/completed, data/inst (Count)
testsys.cpu_cluster.cpus0.mmu.itb_walker.requestOrigin_Requested::Inst            1                       # Table walker requests started/completed, data/inst (Count)
testsys.cpu_cluster.cpus0.mmu.itb_walker.requestOrigin_Requested::total            1                       # Table walker requests started/completed, data/inst (Count)
testsys.cpu_cluster.cpus0.mmu.itb_walker.requestOrigin_Completed::Data            0                       # Table walker requests started/completed, data/inst (Count)
testsys.cpu_cluster.cpus0.mmu.itb_walker.requestOrigin_Completed::Inst            1                       # Table walker requests started/completed, data/inst (Count)
testsys.cpu_cluster.cpus0.mmu.itb_walker.requestOrigin_Completed::total            1                       # Table walker requests started/completed, data/inst (Count)
testsys.cpu_cluster.cpus0.mmu.itb_walker.requestOrigin::total            2                       # Table walker requests started/completed, data/inst (Count)
testsys.cpu_cluster.cpus0.mmu.itb_walker.power_state.pwrStateResidencyTicks::UNDEFINED 488022361250                       # Cumulative time (in ticks) in various power states (Tick)
testsys.cpu_cluster.cpus0.mmu.stage2_dtb.instHits            0                       # ITB inst hits (Count)
testsys.cpu_cluster.cpus0.mmu.stage2_dtb.instMisses            0                       # ITB inst misses (Count)
testsys.cpu_cluster.cpus0.mmu.stage2_dtb.readHits            0                       # DTB read hits (Count)
testsys.cpu_cluster.cpus0.mmu.stage2_dtb.readMisses            0                       # DTB read misses (Count)
testsys.cpu_cluster.cpus0.mmu.stage2_dtb.writeHits            0                       # DTB write hits (Count)
testsys.cpu_cluster.cpus0.mmu.stage2_dtb.writeMisses            0                       # DTB write misses (Count)
testsys.cpu_cluster.cpus0.mmu.stage2_dtb.inserts            0                       # Number of times an entry is inserted into the TLB (Count)
testsys.cpu_cluster.cpus0.mmu.stage2_dtb.flushTlb            0                       # Number of times complete TLB was flushed (Count)
testsys.cpu_cluster.cpus0.mmu.stage2_dtb.flushTlbMva            0                       # Number of times TLB was flushed by MVA (Count)
testsys.cpu_cluster.cpus0.mmu.stage2_dtb.flushTlbMvaAsid            0                       # Number of times TLB was flushed by MVA & ASID (Count)
testsys.cpu_cluster.cpus0.mmu.stage2_dtb.flushTlbAsid            0                       # Number of times TLB was flushed by ASID (Count)
testsys.cpu_cluster.cpus0.mmu.stage2_dtb.flushedEntries            0                       # Number of entries that have been flushed from TLB (Count)
testsys.cpu_cluster.cpus0.mmu.stage2_dtb.alignFaults            0                       # Number of TLB faults due to alignment restrictions (Count)
testsys.cpu_cluster.cpus0.mmu.stage2_dtb.prefetchFaults            0                       # Number of TLB faults due to prefetch (Count)
testsys.cpu_cluster.cpus0.mmu.stage2_dtb.domainFaults            0                       # Number of TLB faults due to domain restrictions (Count)
testsys.cpu_cluster.cpus0.mmu.stage2_dtb.permsFaults            0                       # Number of TLB faults due to permissions restrictions (Count)
testsys.cpu_cluster.cpus0.mmu.stage2_dtb.readAccesses            0                       # DTB read accesses (Count)
testsys.cpu_cluster.cpus0.mmu.stage2_dtb.writeAccesses            0                       # DTB write accesses (Count)
testsys.cpu_cluster.cpus0.mmu.stage2_dtb.instAccesses            0                       # ITB inst accesses (Count)
testsys.cpu_cluster.cpus0.mmu.stage2_dtb.hits            0                       # Total TLB (inst and data) hits (Count)
testsys.cpu_cluster.cpus0.mmu.stage2_dtb.misses            0                       # Total TLB (inst and data) misses (Count)
testsys.cpu_cluster.cpus0.mmu.stage2_dtb.accesses            0                       # Total TLB (inst and data) accesses (Count)
testsys.cpu_cluster.cpus0.mmu.stage2_dtb_walker.walks            0                       # Table walker walks requested (Count)
testsys.cpu_cluster.cpus0.mmu.stage2_dtb_walker.requestOrigin_Requested::Data            0                       # Table walker requests started/completed, data/inst (Count)
testsys.cpu_cluster.cpus0.mmu.stage2_dtb_walker.requestOrigin_Requested::Inst            0                       # Table walker requests started/completed, data/inst (Count)
testsys.cpu_cluster.cpus0.mmu.stage2_dtb_walker.requestOrigin_Requested::total            0                       # Table walker requests started/completed, data/inst (Count)
testsys.cpu_cluster.cpus0.mmu.stage2_dtb_walker.requestOrigin_Completed::Data            0                       # Table walker requests started/completed, data/inst (Count)
testsys.cpu_cluster.cpus0.mmu.stage2_dtb_walker.requestOrigin_Completed::Inst            0                       # Table walker requests started/completed, data/inst (Count)
testsys.cpu_cluster.cpus0.mmu.stage2_dtb_walker.requestOrigin_Completed::total            0                       # Table walker requests started/completed, data/inst (Count)
testsys.cpu_cluster.cpus0.mmu.stage2_dtb_walker.requestOrigin::total            0                       # Table walker requests started/completed, data/inst (Count)
testsys.cpu_cluster.cpus0.mmu.stage2_dtb_walker.power_state.pwrStateResidencyTicks::UNDEFINED 488022361250                       # Cumulative time (in ticks) in various power states (Tick)
testsys.cpu_cluster.cpus0.mmu.stage2_itb.instHits            0                       # ITB inst hits (Count)
testsys.cpu_cluster.cpus0.mmu.stage2_itb.instMisses            0                       # ITB inst misses (Count)
testsys.cpu_cluster.cpus0.mmu.stage2_itb.readHits            0                       # DTB read hits (Count)
testsys.cpu_cluster.cpus0.mmu.stage2_itb.readMisses            0                       # DTB read misses (Count)
testsys.cpu_cluster.cpus0.mmu.stage2_itb.writeHits            0                       # DTB write hits (Count)
testsys.cpu_cluster.cpus0.mmu.stage2_itb.writeMisses            0                       # DTB write misses (Count)
testsys.cpu_cluster.cpus0.mmu.stage2_itb.inserts            0                       # Number of times an entry is inserted into the TLB (Count)
testsys.cpu_cluster.cpus0.mmu.stage2_itb.flushTlb            0                       # Number of times complete TLB was flushed (Count)
testsys.cpu_cluster.cpus0.mmu.stage2_itb.flushTlbMva            0                       # Number of times TLB was flushed by MVA (Count)
testsys.cpu_cluster.cpus0.mmu.stage2_itb.flushTlbMvaAsid            0                       # Number of times TLB was flushed by MVA & ASID (Count)
testsys.cpu_cluster.cpus0.mmu.stage2_itb.flushTlbAsid            0                       # Number of times TLB was flushed by ASID (Count)
testsys.cpu_cluster.cpus0.mmu.stage2_itb.flushedEntries            0                       # Number of entries that have been flushed from TLB (Count)
testsys.cpu_cluster.cpus0.mmu.stage2_itb.alignFaults            0                       # Number of TLB faults due to alignment restrictions (Count)
testsys.cpu_cluster.cpus0.mmu.stage2_itb.prefetchFaults            0                       # Number of TLB faults due to prefetch (Count)
testsys.cpu_cluster.cpus0.mmu.stage2_itb.domainFaults            0                       # Number of TLB faults due to domain restrictions (Count)
testsys.cpu_cluster.cpus0.mmu.stage2_itb.permsFaults            0                       # Number of TLB faults due to permissions restrictions (Count)
testsys.cpu_cluster.cpus0.mmu.stage2_itb.readAccesses            0                       # DTB read accesses (Count)
testsys.cpu_cluster.cpus0.mmu.stage2_itb.writeAccesses            0                       # DTB write accesses (Count)
testsys.cpu_cluster.cpus0.mmu.stage2_itb.instAccesses            0                       # ITB inst accesses (Count)
testsys.cpu_cluster.cpus0.mmu.stage2_itb.hits            0                       # Total TLB (inst and data) hits (Count)
testsys.cpu_cluster.cpus0.mmu.stage2_itb.misses            0                       # Total TLB (inst and data) misses (Count)
testsys.cpu_cluster.cpus0.mmu.stage2_itb.accesses            0                       # Total TLB (inst and data) accesses (Count)
testsys.cpu_cluster.cpus0.mmu.stage2_itb_walker.walks            0                       # Table walker walks requested (Count)
testsys.cpu_cluster.cpus0.mmu.stage2_itb_walker.requestOrigin_Requested::Data            0                       # Table walker requests started/completed, data/inst (Count)
testsys.cpu_cluster.cpus0.mmu.stage2_itb_walker.requestOrigin_Requested::Inst            0                       # Table walker requests started/completed, data/inst (Count)
testsys.cpu_cluster.cpus0.mmu.stage2_itb_walker.requestOrigin_Requested::total            0                       # Table walker requests started/completed, data/inst (Count)
testsys.cpu_cluster.cpus0.mmu.stage2_itb_walker.requestOrigin_Completed::Data            0                       # Table walker requests started/completed, data/inst (Count)
testsys.cpu_cluster.cpus0.mmu.stage2_itb_walker.requestOrigin_Completed::Inst            0                       # Table walker requests started/completed, data/inst (Count)
testsys.cpu_cluster.cpus0.mmu.stage2_itb_walker.requestOrigin_Completed::total            0                       # Table walker requests started/completed, data/inst (Count)
testsys.cpu_cluster.cpus0.mmu.stage2_itb_walker.requestOrigin::total            0                       # Table walker requests started/completed, data/inst (Count)
testsys.cpu_cluster.cpus0.mmu.stage2_itb_walker.power_state.pwrStateResidencyTicks::UNDEFINED 488022361250                       # Cumulative time (in ticks) in various power states (Tick)
testsys.cpu_cluster.cpus0.power_state.numTransitions           44                       # Number of power state transitions (Count)
testsys.cpu_cluster.cpus0.power_state.ticksClkGated::samples           23                       # Distribution of time spent in the clock gated state (Tick)
testsys.cpu_cluster.cpus0.power_state.ticksClkGated::mean 62403294.086957                       # Distribution of time spent in the clock gated state (Tick)
testsys.cpu_cluster.cpus0.power_state.ticksClkGated::stdev 63431428.228917                       # Distribution of time spent in the clock gated state (Tick)
testsys.cpu_cluster.cpus0.power_state.ticksClkGated::underflows            2      8.70%      8.70% # Distribution of time spent in the clock gated state (Tick)
testsys.cpu_cluster.cpus0.power_state.ticksClkGated::1000-5e+10           21     91.30%    100.00% # Distribution of time spent in the clock gated state (Tick)
testsys.cpu_cluster.cpus0.power_state.ticksClkGated::min_value          251                       # Distribution of time spent in the clock gated state (Tick)
testsys.cpu_cluster.cpus0.power_state.ticksClkGated::max_value    162671110                       # Distribution of time spent in the clock gated state (Tick)
testsys.cpu_cluster.cpus0.power_state.ticksClkGated::total           23                       # Distribution of time spent in the clock gated state (Tick)
testsys.cpu_cluster.cpus0.power_state.pwrStateResidencyTicks::ON     19995736                       # Cumulative time (in ticks) in various power states (Tick)
testsys.cpu_cluster.cpus0.power_state.pwrStateResidencyTicks::CLK_GATED   1435275764                       # Cumulative time (in ticks) in various power states (Tick)
testsys.cpu_cluster.cpus0.thread_0.numInsts            0                       # Number of Instructions committed (Count)
testsys.cpu_cluster.cpus0.thread_0.numOps            0                       # Number of Ops committed (Count)
testsys.cpu_cluster.cpus0.thread_0.numMemRefs            0                       # Number of Memory References (Count)
testsys.cpu_cluster.cpus1.numCycles           5655048                       # Number of cpu cycles simulated (Cycle)
testsys.cpu_cluster.cpus1.numWorkItemsStarted            0                       # Number of work items this cpu started (Count)
testsys.cpu_cluster.cpus1.numWorkItemsCompleted            0                       # Number of work items this cpu completed (Count)
testsys.cpu_cluster.cpus1.exec_context.thread_0.numInsts      5059410                       # Number of instructions committed (Count)
testsys.cpu_cluster.cpus1.exec_context.thread_0.numOps      5512266                       # Number of ops (including micro ops) committed (Count)
testsys.cpu_cluster.cpus1.exec_context.thread_0.numIntAluAccesses      4942807                       # Number of integer alu accesses (Count)
testsys.cpu_cluster.cpus1.exec_context.thread_0.numFpAluAccesses            0                       # Number of float alu accesses (Count)
testsys.cpu_cluster.cpus1.exec_context.thread_0.numVecAluAccesses       224548                       # Number of vector alu accesses (Count)
testsys.cpu_cluster.cpus1.exec_context.thread_0.numCallsReturns       188938                       # Number of times a function call or return occured (Count)
testsys.cpu_cluster.cpus1.exec_context.thread_0.numCondCtrlInsts       641046                       # Number of instructions that are conditional controls (Count)
testsys.cpu_cluster.cpus1.exec_context.thread_0.numIntInsts      4942807                       # Number of integer instructions (Count)
testsys.cpu_cluster.cpus1.exec_context.thread_0.numFpInsts            0                       # Number of float instructions (Count)
testsys.cpu_cluster.cpus1.exec_context.thread_0.numVecInsts       224548                       # Number of vector instructions (Count)
testsys.cpu_cluster.cpus1.exec_context.thread_0.numIntRegReads      7193145                       # Number of times the integer registers were read (Count)
testsys.cpu_cluster.cpus1.exec_context.thread_0.numIntRegWrites      4101943                       # Number of times the integer registers were written (Count)
testsys.cpu_cluster.cpus1.exec_context.thread_0.numFpRegReads            0                       # Number of times the floating registers were read (Count)
testsys.cpu_cluster.cpus1.exec_context.thread_0.numFpRegWrites            0                       # Number of times the floating registers were written (Count)
testsys.cpu_cluster.cpus1.exec_context.thread_0.numVecRegReads       173746                       # Number of times the vector registers were read (Count)
testsys.cpu_cluster.cpus1.exec_context.thread_0.numVecRegWrites       101279                       # Number of times the vector registers were written (Count)
testsys.cpu_cluster.cpus1.exec_context.thread_0.numVecPredRegReads            0                       # Number of times the predicate registers were read (Count)
testsys.cpu_cluster.cpus1.exec_context.thread_0.numVecPredRegWrites            0                       # Number of times the predicate registers were written (Count)
testsys.cpu_cluster.cpus1.exec_context.thread_0.numCCRegReads      1461817                       # Number of times the CC registers were read (Count)
testsys.cpu_cluster.cpus1.exec_context.thread_0.numCCRegWrites      1440875                       # Number of times the CC registers were written (Count)
testsys.cpu_cluster.cpus1.exec_context.thread_0.numMemRefs      1234482                       # Number of memory refs (Count)
testsys.cpu_cluster.cpus1.exec_context.thread_0.numLoadInsts       705255                       # Number of load instructions (Count)
testsys.cpu_cluster.cpus1.exec_context.thread_0.numStoreInsts       529227                       # Number of store instructions (Count)
testsys.cpu_cluster.cpus1.exec_context.thread_0.numIdleCycles 142511.431111                       # Number of idle cycles (Cycle)
testsys.cpu_cluster.cpus1.exec_context.thread_0.numBusyCycles 5512536.568889                       # Number of busy cycles (Cycle)
testsys.cpu_cluster.cpus1.exec_context.thread_0.notIdleFraction     0.974799                       # Percentage of non-idle cycles (Ratio)
testsys.cpu_cluster.cpus1.exec_context.thread_0.idleFraction     0.025201                       # Percentage of idle cycles (Ratio)
testsys.cpu_cluster.cpus1.exec_context.thread_0.numBranches       979601                       # Number of branches fetched (Count)
testsys.cpu_cluster.cpus1.exec_context.thread_0.statExecutedInstType::No_OpClass          333      0.01%      0.01% # Class of executed instruction. (Count)
testsys.cpu_cluster.cpus1.exec_context.thread_0.statExecutedInstType::IntAlu      3964942     71.93%     71.93% # Class of executed instruction. (Count)
testsys.cpu_cluster.cpus1.exec_context.thread_0.statExecutedInstType::IntMult       139670      2.53%     74.47% # Class of executed instruction. (Count)
testsys.cpu_cluster.cpus1.exec_context.thread_0.statExecutedInstType::IntDiv         3843      0.07%     74.54% # Class of executed instruction. (Count)
testsys.cpu_cluster.cpus1.exec_context.thread_0.statExecutedInstType::FloatAdd         2160      0.04%     74.57% # Class of executed instruction. (Count)
testsys.cpu_cluster.cpus1.exec_context.thread_0.statExecutedInstType::FloatCmp          659      0.01%     74.59% # Class of executed instruction. (Count)
testsys.cpu_cluster.cpus1.exec_context.thread_0.statExecutedInstType::FloatCvt          670      0.01%     74.60% # Class of executed instruction. (Count)
testsys.cpu_cluster.cpus1.exec_context.thread_0.statExecutedInstType::FloatMult           82      0.00%     74.60% # Class of executed instruction. (Count)
testsys.cpu_cluster.cpus1.exec_context.thread_0.statExecutedInstType::FloatMultAcc           65      0.00%     74.60% # Class of executed instruction. (Count)
testsys.cpu_cluster.cpus1.exec_context.thread_0.statExecutedInstType::FloatDiv           36      0.00%     74.60% # Class of executed instruction. (Count)
testsys.cpu_cluster.cpus1.exec_context.thread_0.statExecutedInstType::FloatMisc       156562      2.84%     77.44% # Class of executed instruction. (Count)
testsys.cpu_cluster.cpus1.exec_context.thread_0.statExecutedInstType::FloatSqrt            0      0.00%     77.44% # Class of executed instruction. (Count)
testsys.cpu_cluster.cpus1.exec_context.thread_0.statExecutedInstType::SimdAdd            0      0.00%     77.44% # Class of executed instruction. (Count)
testsys.cpu_cluster.cpus1.exec_context.thread_0.statExecutedInstType::SimdAddAcc            0      0.00%     77.44% # Class of executed instruction. (Count)
testsys.cpu_cluster.cpus1.exec_context.thread_0.statExecutedInstType::SimdAlu         7769      0.14%     77.58% # Class of executed instruction. (Count)
testsys.cpu_cluster.cpus1.exec_context.thread_0.statExecutedInstType::SimdCmp            0      0.00%     77.58% # Class of executed instruction. (Count)
testsys.cpu_cluster.cpus1.exec_context.thread_0.statExecutedInstType::SimdCvt            0      0.00%     77.58% # Class of executed instruction. (Count)
testsys.cpu_cluster.cpus1.exec_context.thread_0.statExecutedInstType::SimdMisc         1233      0.02%     77.61% # Class of executed instruction. (Count)
testsys.cpu_cluster.cpus1.exec_context.thread_0.statExecutedInstType::SimdMult            0      0.00%     77.61% # Class of executed instruction. (Count)
testsys.cpu_cluster.cpus1.exec_context.thread_0.statExecutedInstType::SimdMultAcc            0      0.00%     77.61% # Class of executed instruction. (Count)
testsys.cpu_cluster.cpus1.exec_context.thread_0.statExecutedInstType::SimdShift            5      0.00%     77.61% # Class of executed instruction. (Count)
testsys.cpu_cluster.cpus1.exec_context.thread_0.statExecutedInstType::SimdShiftAcc            0      0.00%     77.61% # Class of executed instruction. (Count)
testsys.cpu_cluster.cpus1.exec_context.thread_0.statExecutedInstType::SimdDiv            0      0.00%     77.61% # Class of executed instruction. (Count)
testsys.cpu_cluster.cpus1.exec_context.thread_0.statExecutedInstType::SimdSqrt            0      0.00%     77.61% # Class of executed instruction. (Count)
testsys.cpu_cluster.cpus1.exec_context.thread_0.statExecutedInstType::SimdFloatAdd            0      0.00%     77.61% # Class of executed instruction. (Count)
testsys.cpu_cluster.cpus1.exec_context.thread_0.statExecutedInstType::SimdFloatAlu            0      0.00%     77.61% # Class of executed instruction. (Count)
testsys.cpu_cluster.cpus1.exec_context.thread_0.statExecutedInstType::SimdFloatCmp            0      0.00%     77.61% # Class of executed instruction. (Count)
testsys.cpu_cluster.cpus1.exec_context.thread_0.statExecutedInstType::SimdFloatCvt            0      0.00%     77.61% # Class of executed instruction. (Count)
testsys.cpu_cluster.cpus1.exec_context.thread_0.statExecutedInstType::SimdFloatDiv            0      0.00%     77.61% # Class of executed instruction. (Count)
testsys.cpu_cluster.cpus1.exec_context.thread_0.statExecutedInstType::SimdFloatMisc            0      0.00%     77.61% # Class of executed instruction. (Count)
testsys.cpu_cluster.cpus1.exec_context.thread_0.statExecutedInstType::SimdFloatMult            0      0.00%     77.61% # Class of executed instruction. (Count)
testsys.cpu_cluster.cpus1.exec_context.thread_0.statExecutedInstType::SimdFloatMultAcc            0      0.00%     77.61% # Class of executed instruction. (Count)
testsys.cpu_cluster.cpus1.exec_context.thread_0.statExecutedInstType::SimdFloatSqrt            0      0.00%     77.61% # Class of executed instruction. (Count)
testsys.cpu_cluster.cpus1.exec_context.thread_0.statExecutedInstType::SimdReduceAdd            0      0.00%     77.61% # Class of executed instruction. (Count)
testsys.cpu_cluster.cpus1.exec_context.thread_0.statExecutedInstType::SimdReduceAlu            0      0.00%     77.61% # Class of executed instruction. (Count)
testsys.cpu_cluster.cpus1.exec_context.thread_0.statExecutedInstType::SimdReduceCmp            0      0.00%     77.61% # Class of executed instruction. (Count)
testsys.cpu_cluster.cpus1.exec_context.thread_0.statExecutedInstType::SimdFloatReduceAdd            0      0.00%     77.61% # Class of executed instruction. (Count)
testsys.cpu_cluster.cpus1.exec_context.thread_0.statExecutedInstType::SimdFloatReduceCmp            0      0.00%     77.61% # Class of executed instruction. (Count)
testsys.cpu_cluster.cpus1.exec_context.thread_0.statExecutedInstType::SimdAes            0      0.00%     77.61% # Class of executed instruction. (Count)
testsys.cpu_cluster.cpus1.exec_context.thread_0.statExecutedInstType::SimdAesMix            0      0.00%     77.61% # Class of executed instruction. (Count)
testsys.cpu_cluster.cpus1.exec_context.thread_0.statExecutedInstType::SimdSha1Hash            0      0.00%     77.61% # Class of executed instruction. (Count)
testsys.cpu_cluster.cpus1.exec_context.thread_0.statExecutedInstType::SimdSha1Hash2            0      0.00%     77.61% # Class of executed instruction. (Count)
testsys.cpu_cluster.cpus1.exec_context.thread_0.statExecutedInstType::SimdSha256Hash            0      0.00%     77.61% # Class of executed instruction. (Count)
testsys.cpu_cluster.cpus1.exec_context.thread_0.statExecutedInstType::SimdSha256Hash2            0      0.00%     77.61% # Class of executed instruction. (Count)
testsys.cpu_cluster.cpus1.exec_context.thread_0.statExecutedInstType::SimdShaSigma2            0      0.00%     77.61% # Class of executed instruction. (Count)
testsys.cpu_cluster.cpus1.exec_context.thread_0.statExecutedInstType::SimdShaSigma3            0      0.00%     77.61% # Class of executed instruction. (Count)
testsys.cpu_cluster.cpus1.exec_context.thread_0.statExecutedInstType::SimdPredAlu            0      0.00%     77.61% # Class of executed instruction. (Count)
testsys.cpu_cluster.cpus1.exec_context.thread_0.statExecutedInstType::MemRead       705255     12.79%     90.40% # Class of executed instruction. (Count)
testsys.cpu_cluster.cpus1.exec_context.thread_0.statExecutedInstType::MemWrite       529227      9.60%    100.00% # Class of executed instruction. (Count)
testsys.cpu_cluster.cpus1.exec_context.thread_0.statExecutedInstType::FloatMemRead            0      0.00%    100.00% # Class of executed instruction. (Count)
testsys.cpu_cluster.cpus1.exec_context.thread_0.statExecutedInstType::FloatMemWrite            0      0.00%    100.00% # Class of executed instruction. (Count)
testsys.cpu_cluster.cpus1.exec_context.thread_0.statExecutedInstType::IprAccess            0      0.00%    100.00% # Class of executed instruction. (Count)
testsys.cpu_cluster.cpus1.exec_context.thread_0.statExecutedInstType::InstPrefetch            0      0.00%    100.00% # Class of executed instruction. (Count)
testsys.cpu_cluster.cpus1.exec_context.thread_0.statExecutedInstType::total      5512511                       # Class of executed instruction. (Count)
testsys.cpu_cluster.cpus1.mmu.dtb.instHits            0                       # ITB inst hits (Count)
testsys.cpu_cluster.cpus1.mmu.dtb.instMisses            0                       # ITB inst misses (Count)
testsys.cpu_cluster.cpus1.mmu.dtb.readHits       703467                       # DTB read hits (Count)
testsys.cpu_cluster.cpus1.mmu.dtb.readMisses         1971                       # DTB read misses (Count)
testsys.cpu_cluster.cpus1.mmu.dtb.writeHits       528618                       # DTB write hits (Count)
testsys.cpu_cluster.cpus1.mmu.dtb.writeMisses          647                       # DTB write misses (Count)
testsys.cpu_cluster.cpus1.mmu.dtb.inserts         2452                       # Number of times an entry is inserted into the TLB (Count)
testsys.cpu_cluster.cpus1.mmu.dtb.flushTlb            0                       # Number of times complete TLB was flushed (Count)
testsys.cpu_cluster.cpus1.mmu.dtb.flushTlbMva            0                       # Number of times TLB was flushed by MVA (Count)
testsys.cpu_cluster.cpus1.mmu.dtb.flushTlbMvaAsid           38                       # Number of times TLB was flushed by MVA & ASID (Count)
testsys.cpu_cluster.cpus1.mmu.dtb.flushTlbAsid            3                       # Number of times TLB was flushed by ASID (Count)
testsys.cpu_cluster.cpus1.mmu.dtb.flushedEntries          110                       # Number of entries that have been flushed from TLB (Count)
testsys.cpu_cluster.cpus1.mmu.dtb.alignFaults            0                       # Number of TLB faults due to alignment restrictions (Count)
testsys.cpu_cluster.cpus1.mmu.dtb.prefetchFaults           18                       # Number of TLB faults due to prefetch (Count)
testsys.cpu_cluster.cpus1.mmu.dtb.domainFaults            0                       # Number of TLB faults due to domain restrictions (Count)
testsys.cpu_cluster.cpus1.mmu.dtb.permsFaults           11                       # Number of TLB faults due to permissions restrictions (Count)
testsys.cpu_cluster.cpus1.mmu.dtb.readAccesses       705438                       # DTB read accesses (Count)
testsys.cpu_cluster.cpus1.mmu.dtb.writeAccesses       529265                       # DTB write accesses (Count)
testsys.cpu_cluster.cpus1.mmu.dtb.instAccesses            0                       # ITB inst accesses (Count)
testsys.cpu_cluster.cpus1.mmu.dtb.hits        1232085                       # Total TLB (inst and data) hits (Count)
testsys.cpu_cluster.cpus1.mmu.dtb.misses         2618                       # Total TLB (inst and data) misses (Count)
testsys.cpu_cluster.cpus1.mmu.dtb.accesses      1234703                       # Total TLB (inst and data) accesses (Count)
testsys.cpu_cluster.cpus1.mmu.dtb_walker.walks         2600                       # Table walker walks requested (Count)
testsys.cpu_cluster.cpus1.mmu.dtb_walker.walksLongDescriptor         2600                       # Table walker walks initiated with long descriptors (Count)
testsys.cpu_cluster.cpus1.mmu.dtb_walker.walkWaitTime::samples         2600                       # Table walker wait (enqueue to first request) latency (Tick)
testsys.cpu_cluster.cpus1.mmu.dtb_walker.walkWaitTime::0         2600    100.00%    100.00% # Table walker wait (enqueue to first request) latency (Tick)
testsys.cpu_cluster.cpus1.mmu.dtb_walker.walkWaitTime::total         2600                       # Table walker wait (enqueue to first request) latency (Tick)
testsys.cpu_cluster.cpus1.mmu.dtb_walker.pageSizes::4KiB         2394     97.63%     97.63% # Table walker page sizes translated (Count)
testsys.cpu_cluster.cpus1.mmu.dtb_walker.pageSizes::2MiB           58      2.37%    100.00% # Table walker page sizes translated (Count)
testsys.cpu_cluster.cpus1.mmu.dtb_walker.pageSizes::total         2452                       # Table walker page sizes translated (Count)
testsys.cpu_cluster.cpus1.mmu.dtb_walker.requestOrigin_Requested::Data         2600                       # Table walker requests started/completed, data/inst (Count)
testsys.cpu_cluster.cpus1.mmu.dtb_walker.requestOrigin_Requested::Inst            0                       # Table walker requests started/completed, data/inst (Count)
testsys.cpu_cluster.cpus1.mmu.dtb_walker.requestOrigin_Requested::total         2600                       # Table walker requests started/completed, data/inst (Count)
testsys.cpu_cluster.cpus1.mmu.dtb_walker.requestOrigin_Completed::Data         2452                       # Table walker requests started/completed, data/inst (Count)
testsys.cpu_cluster.cpus1.mmu.dtb_walker.requestOrigin_Completed::Inst            0                       # Table walker requests started/completed, data/inst (Count)
testsys.cpu_cluster.cpus1.mmu.dtb_walker.requestOrigin_Completed::total         2452                       # Table walker requests started/completed, data/inst (Count)
testsys.cpu_cluster.cpus1.mmu.dtb_walker.requestOrigin::total         5052                       # Table walker requests started/completed, data/inst (Count)
testsys.cpu_cluster.cpus1.mmu.dtb_walker.power_state.pwrStateResidencyTicks::UNDEFINED 488022361250                       # Cumulative time (in ticks) in various power states (Tick)
testsys.cpu_cluster.cpus1.mmu.itb.instHits      5058806                       # ITB inst hits (Count)
testsys.cpu_cluster.cpus1.mmu.itb.instMisses          868                       # ITB inst misses (Count)
testsys.cpu_cluster.cpus1.mmu.itb.readHits            0                       # DTB read hits (Count)
testsys.cpu_cluster.cpus1.mmu.itb.readMisses            0                       # DTB read misses (Count)
testsys.cpu_cluster.cpus1.mmu.itb.writeHits            0                       # DTB write hits (Count)
testsys.cpu_cluster.cpus1.mmu.itb.writeMisses            0                       # DTB write misses (Count)
testsys.cpu_cluster.cpus1.mmu.itb.inserts          849                       # Number of times an entry is inserted into the TLB (Count)
testsys.cpu_cluster.cpus1.mmu.itb.flushTlb            0                       # Number of times complete TLB was flushed (Count)
testsys.cpu_cluster.cpus1.mmu.itb.flushTlbMva            0                       # Number of times TLB was flushed by MVA (Count)
testsys.cpu_cluster.cpus1.mmu.itb.flushTlbMvaAsid           38                       # Number of times TLB was flushed by MVA & ASID (Count)
testsys.cpu_cluster.cpus1.mmu.itb.flushTlbAsid            3                       # Number of times TLB was flushed by ASID (Count)
testsys.cpu_cluster.cpus1.mmu.itb.flushedEntries          113                       # Number of entries that have been flushed from TLB (Count)
testsys.cpu_cluster.cpus1.mmu.itb.alignFaults            0                       # Number of TLB faults due to alignment restrictions (Count)
testsys.cpu_cluster.cpus1.mmu.itb.prefetchFaults            0                       # Number of TLB faults due to prefetch (Count)
testsys.cpu_cluster.cpus1.mmu.itb.domainFaults            0                       # Number of TLB faults due to domain restrictions (Count)
testsys.cpu_cluster.cpus1.mmu.itb.permsFaults            0                       # Number of TLB faults due to permissions restrictions (Count)
testsys.cpu_cluster.cpus1.mmu.itb.readAccesses            0                       # DTB read accesses (Count)
testsys.cpu_cluster.cpus1.mmu.itb.writeAccesses            0                       # DTB write accesses (Count)
testsys.cpu_cluster.cpus1.mmu.itb.instAccesses      5059674                       # ITB inst accesses (Count)
testsys.cpu_cluster.cpus1.mmu.itb.hits        5058806                       # Total TLB (inst and data) hits (Count)
testsys.cpu_cluster.cpus1.mmu.itb.misses          868                       # Total TLB (inst and data) misses (Count)
testsys.cpu_cluster.cpus1.mmu.itb.accesses      5059674                       # Total TLB (inst and data) accesses (Count)
testsys.cpu_cluster.cpus1.mmu.itb_walker.walks          868                       # Table walker walks requested (Count)
testsys.cpu_cluster.cpus1.mmu.itb_walker.walksLongDescriptor          868                       # Table walker walks initiated with long descriptors (Count)
testsys.cpu_cluster.cpus1.mmu.itb_walker.walkWaitTime::samples          868                       # Table walker wait (enqueue to first request) latency (Tick)
testsys.cpu_cluster.cpus1.mmu.itb_walker.walkWaitTime::0          868    100.00%    100.00% # Table walker wait (enqueue to first request) latency (Tick)
testsys.cpu_cluster.cpus1.mmu.itb_walker.walkWaitTime::total          868                       # Table walker wait (enqueue to first request) latency (Tick)
testsys.cpu_cluster.cpus1.mmu.itb_walker.pageSizes::4KiB          827     97.41%     97.41% # Table walker page sizes translated (Count)
testsys.cpu_cluster.cpus1.mmu.itb_walker.pageSizes::2MiB           22      2.59%    100.00% # Table walker page sizes translated (Count)
testsys.cpu_cluster.cpus1.mmu.itb_walker.pageSizes::total          849                       # Table walker page sizes translated (Count)
testsys.cpu_cluster.cpus1.mmu.itb_walker.requestOrigin_Requested::Data            0                       # Table walker requests started/completed, data/inst (Count)
testsys.cpu_cluster.cpus1.mmu.itb_walker.requestOrigin_Requested::Inst          868                       # Table walker requests started/completed, data/inst (Count)
testsys.cpu_cluster.cpus1.mmu.itb_walker.requestOrigin_Requested::total          868                       # Table walker requests started/completed, data/inst (Count)
testsys.cpu_cluster.cpus1.mmu.itb_walker.requestOrigin_Completed::Data            0                       # Table walker requests started/completed, data/inst (Count)
testsys.cpu_cluster.cpus1.mmu.itb_walker.requestOrigin_Completed::Inst          849                       # Table walker requests started/completed, data/inst (Count)
testsys.cpu_cluster.cpus1.mmu.itb_walker.requestOrigin_Completed::total          849                       # Table walker requests started/completed, data/inst (Count)
testsys.cpu_cluster.cpus1.mmu.itb_walker.requestOrigin::total         1717                       # Table walker requests started/completed, data/inst (Count)
testsys.cpu_cluster.cpus1.mmu.itb_walker.power_state.pwrStateResidencyTicks::UNDEFINED 488022361250                       # Cumulative time (in ticks) in various power states (Tick)
testsys.cpu_cluster.cpus1.mmu.stage2_dtb.instHits            0                       # ITB inst hits (Count)
testsys.cpu_cluster.cpus1.mmu.stage2_dtb.instMisses            0                       # ITB inst misses (Count)
testsys.cpu_cluster.cpus1.mmu.stage2_dtb.readHits            0                       # DTB read hits (Count)
testsys.cpu_cluster.cpus1.mmu.stage2_dtb.readMisses            0                       # DTB read misses (Count)
testsys.cpu_cluster.cpus1.mmu.stage2_dtb.writeHits            0                       # DTB write hits (Count)
testsys.cpu_cluster.cpus1.mmu.stage2_dtb.writeMisses            0                       # DTB write misses (Count)
testsys.cpu_cluster.cpus1.mmu.stage2_dtb.inserts            0                       # Number of times an entry is inserted into the TLB (Count)
testsys.cpu_cluster.cpus1.mmu.stage2_dtb.flushTlb            0                       # Number of times complete TLB was flushed (Count)
testsys.cpu_cluster.cpus1.mmu.stage2_dtb.flushTlbMva            0                       # Number of times TLB was flushed by MVA (Count)
testsys.cpu_cluster.cpus1.mmu.stage2_dtb.flushTlbMvaAsid            0                       # Number of times TLB was flushed by MVA & ASID (Count)
testsys.cpu_cluster.cpus1.mmu.stage2_dtb.flushTlbAsid            0                       # Number of times TLB was flushed by ASID (Count)
testsys.cpu_cluster.cpus1.mmu.stage2_dtb.flushedEntries            0                       # Number of entries that have been flushed from TLB (Count)
testsys.cpu_cluster.cpus1.mmu.stage2_dtb.alignFaults            0                       # Number of TLB faults due to alignment restrictions (Count)
testsys.cpu_cluster.cpus1.mmu.stage2_dtb.prefetchFaults            0                       # Number of TLB faults due to prefetch (Count)
testsys.cpu_cluster.cpus1.mmu.stage2_dtb.domainFaults            0                       # Number of TLB faults due to domain restrictions (Count)
testsys.cpu_cluster.cpus1.mmu.stage2_dtb.permsFaults            0                       # Number of TLB faults due to permissions restrictions (Count)
testsys.cpu_cluster.cpus1.mmu.stage2_dtb.readAccesses            0                       # DTB read accesses (Count)
testsys.cpu_cluster.cpus1.mmu.stage2_dtb.writeAccesses            0                       # DTB write accesses (Count)
testsys.cpu_cluster.cpus1.mmu.stage2_dtb.instAccesses            0                       # ITB inst accesses (Count)
testsys.cpu_cluster.cpus1.mmu.stage2_dtb.hits            0                       # Total TLB (inst and data) hits (Count)
testsys.cpu_cluster.cpus1.mmu.stage2_dtb.misses            0                       # Total TLB (inst and data) misses (Count)
testsys.cpu_cluster.cpus1.mmu.stage2_dtb.accesses            0                       # Total TLB (inst and data) accesses (Count)
testsys.cpu_cluster.cpus1.mmu.stage2_dtb_walker.walks            0                       # Table walker walks requested (Count)
testsys.cpu_cluster.cpus1.mmu.stage2_dtb_walker.requestOrigin_Requested::Data            0                       # Table walker requests started/completed, data/inst (Count)
testsys.cpu_cluster.cpus1.mmu.stage2_dtb_walker.requestOrigin_Requested::Inst            0                       # Table walker requests started/completed, data/inst (Count)
testsys.cpu_cluster.cpus1.mmu.stage2_dtb_walker.requestOrigin_Requested::total            0                       # Table walker requests started/completed, data/inst (Count)
testsys.cpu_cluster.cpus1.mmu.stage2_dtb_walker.requestOrigin_Completed::Data            0                       # Table walker requests started/completed, data/inst (Count)
testsys.cpu_cluster.cpus1.mmu.stage2_dtb_walker.requestOrigin_Completed::Inst            0                       # Table walker requests started/completed, data/inst (Count)
testsys.cpu_cluster.cpus1.mmu.stage2_dtb_walker.requestOrigin_Completed::total            0                       # Table walker requests started/completed, data/inst (Count)
testsys.cpu_cluster.cpus1.mmu.stage2_dtb_walker.requestOrigin::total            0                       # Table walker requests started/completed, data/inst (Count)
testsys.cpu_cluster.cpus1.mmu.stage2_dtb_walker.power_state.pwrStateResidencyTicks::UNDEFINED 488022361250                       # Cumulative time (in ticks) in various power states (Tick)
testsys.cpu_cluster.cpus1.mmu.stage2_itb.instHits            0                       # ITB inst hits (Count)
testsys.cpu_cluster.cpus1.mmu.stage2_itb.instMisses            0                       # ITB inst misses (Count)
testsys.cpu_cluster.cpus1.mmu.stage2_itb.readHits            0                       # DTB read hits (Count)
testsys.cpu_cluster.cpus1.mmu.stage2_itb.readMisses            0                       # DTB read misses (Count)
testsys.cpu_cluster.cpus1.mmu.stage2_itb.writeHits            0                       # DTB write hits (Count)
testsys.cpu_cluster.cpus1.mmu.stage2_itb.writeMisses            0                       # DTB write misses (Count)
testsys.cpu_cluster.cpus1.mmu.stage2_itb.inserts            0                       # Number of times an entry is inserted into the TLB (Count)
testsys.cpu_cluster.cpus1.mmu.stage2_itb.flushTlb            0                       # Number of times complete TLB was flushed (Count)
testsys.cpu_cluster.cpus1.mmu.stage2_itb.flushTlbMva            0                       # Number of times TLB was flushed by MVA (Count)
testsys.cpu_cluster.cpus1.mmu.stage2_itb.flushTlbMvaAsid            0                       # Number of times TLB was flushed by MVA & ASID (Count)
testsys.cpu_cluster.cpus1.mmu.stage2_itb.flushTlbAsid            0                       # Number of times TLB was flushed by ASID (Count)
testsys.cpu_cluster.cpus1.mmu.stage2_itb.flushedEntries            0                       # Number of entries that have been flushed from TLB (Count)
testsys.cpu_cluster.cpus1.mmu.stage2_itb.alignFaults            0                       # Number of TLB faults due to alignment restrictions (Count)
testsys.cpu_cluster.cpus1.mmu.stage2_itb.prefetchFaults            0                       # Number of TLB faults due to prefetch (Count)
testsys.cpu_cluster.cpus1.mmu.stage2_itb.domainFaults            0                       # Number of TLB faults due to domain restrictions (Count)
testsys.cpu_cluster.cpus1.mmu.stage2_itb.permsFaults            0                       # Number of TLB faults due to permissions restrictions (Count)
testsys.cpu_cluster.cpus1.mmu.stage2_itb.readAccesses            0                       # DTB read accesses (Count)
testsys.cpu_cluster.cpus1.mmu.stage2_itb.writeAccesses            0                       # DTB write accesses (Count)
testsys.cpu_cluster.cpus1.mmu.stage2_itb.instAccesses            0                       # ITB inst accesses (Count)
testsys.cpu_cluster.cpus1.mmu.stage2_itb.hits            0                       # Total TLB (inst and data) hits (Count)
testsys.cpu_cluster.cpus1.mmu.stage2_itb.misses            0                       # Total TLB (inst and data) misses (Count)
testsys.cpu_cluster.cpus1.mmu.stage2_itb.accesses            0                       # Total TLB (inst and data) accesses (Count)
testsys.cpu_cluster.cpus1.mmu.stage2_itb_walker.walks            0                       # Table walker walks requested (Count)
testsys.cpu_cluster.cpus1.mmu.stage2_itb_walker.requestOrigin_Requested::Data            0                       # Table walker requests started/completed, data/inst (Count)
testsys.cpu_cluster.cpus1.mmu.stage2_itb_walker.requestOrigin_Requested::Inst            0                       # Table walker requests started/completed, data/inst (Count)
testsys.cpu_cluster.cpus1.mmu.stage2_itb_walker.requestOrigin_Requested::total            0                       # Table walker requests started/completed, data/inst (Count)
testsys.cpu_cluster.cpus1.mmu.stage2_itb_walker.requestOrigin_Completed::Data            0                       # Table walker requests started/completed, data/inst (Count)
testsys.cpu_cluster.cpus1.mmu.stage2_itb_walker.requestOrigin_Completed::Inst            0                       # Table walker requests started/completed, data/inst (Count)
testsys.cpu_cluster.cpus1.mmu.stage2_itb_walker.requestOrigin_Completed::total            0                       # Table walker requests started/completed, data/inst (Count)
testsys.cpu_cluster.cpus1.mmu.stage2_itb_walker.requestOrigin::total            0                       # Table walker requests started/completed, data/inst (Count)
testsys.cpu_cluster.cpus1.mmu.stage2_itb_walker.power_state.pwrStateResidencyTicks::UNDEFINED 488022361250                       # Cumulative time (in ticks) in various power states (Tick)
testsys.cpu_cluster.cpus1.power_state.numTransitions           32                       # Number of power state transitions (Count)
testsys.cpu_cluster.cpus1.power_state.ticksClkGated::samples           16                       # Distribution of time spent in the clock gated state (Tick)
testsys.cpu_cluster.cpus1.power_state.ticksClkGated::mean 2226734.812500                       # Distribution of time spent in the clock gated state (Tick)
testsys.cpu_cluster.cpus1.power_state.ticksClkGated::stdev 7865281.309921                       # Distribution of time spent in the clock gated state (Tick)
testsys.cpu_cluster.cpus1.power_state.ticksClkGated::underflows            7     43.75%     43.75% # Distribution of time spent in the clock gated state (Tick)
testsys.cpu_cluster.cpus1.power_state.ticksClkGated::1000-5e+10            9     56.25%    100.00% # Distribution of time spent in the clock gated state (Tick)
testsys.cpu_cluster.cpus1.power_state.ticksClkGated::min_value          251                       # Distribution of time spent in the clock gated state (Tick)
testsys.cpu_cluster.cpus1.power_state.ticksClkGated::max_value     31640000                       # Distribution of time spent in the clock gated state (Tick)
testsys.cpu_cluster.cpus1.power_state.ticksClkGated::total           16                       # Distribution of time spent in the clock gated state (Tick)
testsys.cpu_cluster.cpus1.power_state.pwrStateResidencyTicks::ON   1515326743                       # Cumulative time (in ticks) in various power states (Tick)
testsys.cpu_cluster.cpus1.power_state.pwrStateResidencyTicks::CLK_GATED     35627757                       # Cumulative time (in ticks) in various power states (Tick)
testsys.cpu_cluster.cpus1.thread_0.numInsts            0                       # Number of Instructions committed (Count)
testsys.cpu_cluster.cpus1.thread_0.numOps            0                       # Number of Ops committed (Count)
testsys.cpu_cluster.cpus1.thread_0.numMemRefs            0                       # Number of Memory References (Count)
testsys.cpu_cluster.cpus2.numCycles           5208286                       # Number of cpu cycles simulated (Cycle)
testsys.cpu_cluster.cpus2.numWorkItemsStarted            0                       # Number of work items this cpu started (Count)
testsys.cpu_cluster.cpus2.numWorkItemsCompleted            0                       # Number of work items this cpu completed (Count)
testsys.cpu_cluster.cpus2.exec_context.thread_0.numInsts         9500                       # Number of instructions committed (Count)
testsys.cpu_cluster.cpus2.exec_context.thread_0.numOps        11037                       # Number of ops (including micro ops) committed (Count)
testsys.cpu_cluster.cpus2.exec_context.thread_0.numIntAluAccesses        10201                       # Number of integer alu accesses (Count)
testsys.cpu_cluster.cpus2.exec_context.thread_0.numFpAluAccesses            0                       # Number of float alu accesses (Count)
testsys.cpu_cluster.cpus2.exec_context.thread_0.numVecAluAccesses            0                       # Number of vector alu accesses (Count)
testsys.cpu_cluster.cpus2.exec_context.thread_0.numCallsReturns          767                       # Number of times a function call or return occured (Count)
testsys.cpu_cluster.cpus2.exec_context.thread_0.numCondCtrlInsts         1181                       # Number of instructions that are conditional controls (Count)
testsys.cpu_cluster.cpus2.exec_context.thread_0.numIntInsts        10201                       # Number of integer instructions (Count)
testsys.cpu_cluster.cpus2.exec_context.thread_0.numFpInsts            0                       # Number of float instructions (Count)
testsys.cpu_cluster.cpus2.exec_context.thread_0.numVecInsts            0                       # Number of vector instructions (Count)
testsys.cpu_cluster.cpus2.exec_context.thread_0.numIntRegReads        13725                       # Number of times the integer registers were read (Count)
testsys.cpu_cluster.cpus2.exec_context.thread_0.numIntRegWrites         8234                       # Number of times the integer registers were written (Count)
testsys.cpu_cluster.cpus2.exec_context.thread_0.numFpRegReads            0                       # Number of times the floating registers were read (Count)
testsys.cpu_cluster.cpus2.exec_context.thread_0.numFpRegWrites            0                       # Number of times the floating registers were written (Count)
testsys.cpu_cluster.cpus2.exec_context.thread_0.numVecRegReads            0                       # Number of times the vector registers were read (Count)
testsys.cpu_cluster.cpus2.exec_context.thread_0.numVecRegWrites            0                       # Number of times the vector registers were written (Count)
testsys.cpu_cluster.cpus2.exec_context.thread_0.numVecPredRegReads            0                       # Number of times the predicate registers were read (Count)
testsys.cpu_cluster.cpus2.exec_context.thread_0.numVecPredRegWrites            0                       # Number of times the predicate registers were written (Count)
testsys.cpu_cluster.cpus2.exec_context.thread_0.numCCRegReads         1782                       # Number of times the CC registers were read (Count)
testsys.cpu_cluster.cpus2.exec_context.thread_0.numCCRegWrites         1743                       # Number of times the CC registers were written (Count)
testsys.cpu_cluster.cpus2.exec_context.thread_0.numMemRefs         3453                       # Number of memory refs (Count)
testsys.cpu_cluster.cpus2.exec_context.thread_0.numLoadInsts         2006                       # Number of load instructions (Count)
testsys.cpu_cluster.cpus2.exec_context.thread_0.numStoreInsts         1447                       # Number of store instructions (Count)
testsys.cpu_cluster.cpus2.exec_context.thread_0.numIdleCycles 5198125.569234                       # Number of idle cycles (Cycle)
testsys.cpu_cluster.cpus2.exec_context.thread_0.numBusyCycles 10160.430766                       # Number of busy cycles (Cycle)
testsys.cpu_cluster.cpus2.exec_context.thread_0.notIdleFraction     0.001951                       # Percentage of non-idle cycles (Ratio)
testsys.cpu_cluster.cpus2.exec_context.thread_0.idleFraction     0.998049                       # Percentage of idle cycles (Ratio)
testsys.cpu_cluster.cpus2.exec_context.thread_0.numBranches         2068                       # Number of branches fetched (Count)
testsys.cpu_cluster.cpus2.exec_context.thread_0.statExecutedInstType::No_OpClass            0      0.00%      0.00% # Class of executed instruction. (Count)
testsys.cpu_cluster.cpus2.exec_context.thread_0.statExecutedInstType::IntAlu         7506     68.01%     68.01% # Class of executed instruction. (Count)
testsys.cpu_cluster.cpus2.exec_context.thread_0.statExecutedInstType::IntMult           59      0.53%     68.54% # Class of executed instruction. (Count)
testsys.cpu_cluster.cpus2.exec_context.thread_0.statExecutedInstType::IntDiv           19      0.17%     68.71% # Class of executed instruction. (Count)
testsys.cpu_cluster.cpus2.exec_context.thread_0.statExecutedInstType::FloatAdd            0      0.00%     68.71% # Class of executed instruction. (Count)
testsys.cpu_cluster.cpus2.exec_context.thread_0.statExecutedInstType::FloatCmp            0      0.00%     68.71% # Class of executed instruction. (Count)
testsys.cpu_cluster.cpus2.exec_context.thread_0.statExecutedInstType::FloatCvt            0      0.00%     68.71% # Class of executed instruction. (Count)
testsys.cpu_cluster.cpus2.exec_context.thread_0.statExecutedInstType::FloatMult            0      0.00%     68.71% # Class of executed instruction. (Count)
testsys.cpu_cluster.cpus2.exec_context.thread_0.statExecutedInstType::FloatMultAcc            0      0.00%     68.71% # Class of executed instruction. (Count)
testsys.cpu_cluster.cpus2.exec_context.thread_0.statExecutedInstType::FloatDiv            0      0.00%     68.71% # Class of executed instruction. (Count)
testsys.cpu_cluster.cpus2.exec_context.thread_0.statExecutedInstType::FloatMisc            0      0.00%     68.71% # Class of executed instruction. (Count)
testsys.cpu_cluster.cpus2.exec_context.thread_0.statExecutedInstType::FloatSqrt            0      0.00%     68.71% # Class of executed instruction. (Count)
testsys.cpu_cluster.cpus2.exec_context.thread_0.statExecutedInstType::SimdAdd            0      0.00%     68.71% # Class of executed instruction. (Count)
testsys.cpu_cluster.cpus2.exec_context.thread_0.statExecutedInstType::SimdAddAcc            0      0.00%     68.71% # Class of executed instruction. (Count)
testsys.cpu_cluster.cpus2.exec_context.thread_0.statExecutedInstType::SimdAlu            0      0.00%     68.71% # Class of executed instruction. (Count)
testsys.cpu_cluster.cpus2.exec_context.thread_0.statExecutedInstType::SimdCmp            0      0.00%     68.71% # Class of executed instruction. (Count)
testsys.cpu_cluster.cpus2.exec_context.thread_0.statExecutedInstType::SimdCvt            0      0.00%     68.71% # Class of executed instruction. (Count)
testsys.cpu_cluster.cpus2.exec_context.thread_0.statExecutedInstType::SimdMisc            0      0.00%     68.71% # Class of executed instruction. (Count)
testsys.cpu_cluster.cpus2.exec_context.thread_0.statExecutedInstType::SimdMult            0      0.00%     68.71% # Class of executed instruction. (Count)
testsys.cpu_cluster.cpus2.exec_context.thread_0.statExecutedInstType::SimdMultAcc            0      0.00%     68.71% # Class of executed instruction. (Count)
testsys.cpu_cluster.cpus2.exec_context.thread_0.statExecutedInstType::SimdShift            0      0.00%     68.71% # Class of executed instruction. (Count)
testsys.cpu_cluster.cpus2.exec_context.thread_0.statExecutedInstType::SimdShiftAcc            0      0.00%     68.71% # Class of executed instruction. (Count)
testsys.cpu_cluster.cpus2.exec_context.thread_0.statExecutedInstType::SimdDiv            0      0.00%     68.71% # Class of executed instruction. (Count)
testsys.cpu_cluster.cpus2.exec_context.thread_0.statExecutedInstType::SimdSqrt            0      0.00%     68.71% # Class of executed instruction. (Count)
testsys.cpu_cluster.cpus2.exec_context.thread_0.statExecutedInstType::SimdFloatAdd            0      0.00%     68.71% # Class of executed instruction. (Count)
testsys.cpu_cluster.cpus2.exec_context.thread_0.statExecutedInstType::SimdFloatAlu            0      0.00%     68.71% # Class of executed instruction. (Count)
testsys.cpu_cluster.cpus2.exec_context.thread_0.statExecutedInstType::SimdFloatCmp            0      0.00%     68.71% # Class of executed instruction. (Count)
testsys.cpu_cluster.cpus2.exec_context.thread_0.statExecutedInstType::SimdFloatCvt            0      0.00%     68.71% # Class of executed instruction. (Count)
testsys.cpu_cluster.cpus2.exec_context.thread_0.statExecutedInstType::SimdFloatDiv            0      0.00%     68.71% # Class of executed instruction. (Count)
testsys.cpu_cluster.cpus2.exec_context.thread_0.statExecutedInstType::SimdFloatMisc            0      0.00%     68.71% # Class of executed instruction. (Count)
testsys.cpu_cluster.cpus2.exec_context.thread_0.statExecutedInstType::SimdFloatMult            0      0.00%     68.71% # Class of executed instruction. (Count)
testsys.cpu_cluster.cpus2.exec_context.thread_0.statExecutedInstType::SimdFloatMultAcc            0      0.00%     68.71% # Class of executed instruction. (Count)
testsys.cpu_cluster.cpus2.exec_context.thread_0.statExecutedInstType::SimdFloatSqrt            0      0.00%     68.71% # Class of executed instruction. (Count)
testsys.cpu_cluster.cpus2.exec_context.thread_0.statExecutedInstType::SimdReduceAdd            0      0.00%     68.71% # Class of executed instruction. (Count)
testsys.cpu_cluster.cpus2.exec_context.thread_0.statExecutedInstType::SimdReduceAlu            0      0.00%     68.71% # Class of executed instruction. (Count)
testsys.cpu_cluster.cpus2.exec_context.thread_0.statExecutedInstType::SimdReduceCmp            0      0.00%     68.71% # Class of executed instruction. (Count)
[...]
testsys.pci_devices1.power_state.pwrStateResidencyTicks::UNDEFINED 488022361250                       # Cumulative time (in ticks) in various power states (Tick)
testsys.pci_devices2.EtherDevice.postedInterrupts            0                       # Number of posts to CPU (Count)
testsys.pci_devices2.EtherDevice.descDmaReads            0                       # Number of descriptors the device read w/ DMA (Count)
testsys.pci_devices2.EtherDevice.descDmaWrites            0                       # Number of descriptors the device wrote w/ DMA (Count)
testsys.pci_devices2.EtherDevice.descDmaRdBytes            0                       # Number of descriptor bytes read w/ DMA (Count)
testsys.pci_devices2.EtherDevice.descDmaWrBytes            0                       # Number of descriptor bytes write w/ DMA (Count)
testsys.pci_devices2.EtherDevice.postedSwi            0                       # Number of software interrupts posted to CPU (Count)
testsys.pci_devices2.EtherDevice.totalSwi            0                       # Total number of Swi written to ISR (Count)
testsys.pci_devices2.EtherDevice.coalescedSwi          nan                       # Average number of Swi's coalesced into each post ((Count/Count))
testsys.pci_devices2.EtherDevice.postedRxIdle            0                       # Number of rxIdle interrupts posted to CPU (Count)
testsys.pci_devices2.EtherDevice.totalRxIdle            0                       # Total number of RxIdle written to ISR (Count)
testsys.pci_devices2.EtherDevice.coalescedRxIdle          nan                       # Average number of RxIdle's coalesced into each post ((Count/Count))
testsys.pci_devices2.EtherDevice.postedRxOk            0                       # Number of RxOk interrupts posted to CPU (Count)
testsys.pci_devices2.EtherDevice.totalRxOk            0                       # Total number of RxOk written to ISR (Count)
testsys.pci_devices2.EtherDevice.coalescedRxOk          nan                       # Average number of RxOk's coalesced into each post ((Count/Count))
testsys.pci_devices2.EtherDevice.postedRxDesc            0                       # Number of RxDesc interrupts posted to CPU (Count)
testsys.pci_devices2.EtherDevice.totalRxDesc            0                       # Total number of RxDesc written to ISR (Count)
testsys.pci_devices2.EtherDevice.coalescedRxDesc          nan                       # Average number of RxDesc's coalesced into each post ((Count/Count))
testsys.pci_devices2.EtherDevice.postedTxOk            0                       # Number of TxOk interrupts posted to CPU (Count)
testsys.pci_devices2.EtherDevice.totalTxOk            0                       # Total number of TxOk written to ISR (Count)
testsys.pci_devices2.EtherDevice.coalescedTxOk          nan                       # Average number of TxOk's coalesced into each post ((Count/Count))
testsys.pci_devices2.EtherDevice.postedTxIdle            0                       # Number of TxIdle interrupts posted to CPU (Count)
testsys.pci_devices2.EtherDevice.totalTxIdle            0                       # Total number of TxIdle written to ISR (Count)
testsys.pci_devices2.EtherDevice.coalescedTxIdle          nan                       # Average number of TxIdle's coalesced into each post ((Count/Count))
testsys.pci_devices2.EtherDevice.postedTxDesc            0                       # Number of TxDesc interrupts posted to CPU (Count)
testsys.pci_devices2.EtherDevice.totalTxDesc            0                       # Total number of TxDesc written to ISR (Count)
testsys.pci_devices2.EtherDevice.coalescedTxDesc          nan                       # Average number of TxDesc's coalesced into each post ((Count/Count))
testsys.pci_devices2.EtherDevice.postedRxOrn            0                       # Number of RxOrn posted to CPU (Count)
testsys.pci_devices2.EtherDevice.totalRxOrn            0                       # Total number of RxOrn written to ISR (Count)
testsys.pci_devices2.EtherDevice.coalescedRxOrn          nan                       # Average number of RxOrn's coalesced into each post ((Count/Count))
testsys.pci_devices2.EtherDevice.coalescedTotal          nan                       # Average number of interrupts coalesced into each post ((Count/Count))
testsys.pci_devices2.EtherDevice.droppedPackets            0                       # Number of packets dropped (Count)
testsys.pci_devices2.power_state.pwrStateResidencyTicks::UNDEFINED 488022361250                       # Cumulative time (in ticks) in various power states (Tick)
testsys.pci_devices3.EtherDevice.postedInterrupts            0                       # Number of posts to CPU (Count)
testsys.pci_devices3.EtherDevice.descDmaReads            0                       # Number of descriptors the device read w/ DMA (Count)
testsys.pci_devices3.EtherDevice.descDmaWrites            0                       # Number of descriptors the device wrote w/ DMA (Count)
testsys.pci_devices3.EtherDevice.descDmaRdBytes            0                       # Number of descriptor bytes read w/ DMA (Count)
testsys.pci_devices3.EtherDevice.descDmaWrBytes            0                       # Number of descriptor bytes write w/ DMA (Count)
testsys.pci_devices3.EtherDevice.postedSwi            0                       # Number of software interrupts posted to CPU (Count)
testsys.pci_devices3.EtherDevice.totalSwi            0                       # Total number of Swi written to ISR (Count)
testsys.pci_devices3.EtherDevice.coalescedSwi          nan                       # Average number of Swi's coalesced into each post ((Count/Count))
testsys.pci_devices3.EtherDevice.postedRxIdle            0                       # Number of rxIdle interrupts posted to CPU (Count)
testsys.pci_devices3.EtherDevice.totalRxIdle            0                       # Total number of RxIdle written to ISR (Count)
testsys.pci_devices3.EtherDevice.coalescedRxIdle          nan                       # Average number of RxIdle's coalesced into each post ((Count/Count))
testsys.pci_devices3.EtherDevice.postedRxOk            0                       # Number of RxOk interrupts posted to CPU (Count)
testsys.pci_devices3.EtherDevice.totalRxOk            0                       # Total number of RxOk written to ISR (Count)
testsys.pci_devices3.EtherDevice.coalescedRxOk          nan                       # Average number of RxOk's coalesced into each post ((Count/Count))
testsys.pci_devices3.EtherDevice.postedRxDesc            0                       # Number of RxDesc interrupts posted to CPU (Count)
testsys.pci_devices3.EtherDevice.totalRxDesc            0                       # Total number of RxDesc written to ISR (Count)
testsys.pci_devices3.EtherDevice.coalescedRxDesc          nan                       # Average number of RxDesc's coalesced into each post ((Count/Count))
testsys.pci_devices3.EtherDevice.postedTxOk            0                       # Number of TxOk interrupts posted to CPU (Count)
testsys.pci_devices3.EtherDevice.totalTxOk            0                       # Total number of TxOk written to ISR (Count)
testsys.pci_devices3.EtherDevice.coalescedTxOk          nan                       # Average number of TxOk's coalesced into each post ((Count/Count))
testsys.pci_devices3.EtherDevice.postedTxIdle            0                       # Number of TxIdle interrupts posted to CPU (Count)
testsys.pci_devices3.EtherDevice.totalTxIdle            0                       # Total number of TxIdle written to ISR (Count)
testsys.pci_devices3.EtherDevice.coalescedTxIdle          nan                       # Average number of TxIdle's coalesced into each post ((Count/Count))
testsys.pci_devices3.EtherDevice.postedTxDesc            0                       # Number of TxDesc interrupts posted to CPU (Count)
testsys.pci_devices3.EtherDevice.totalTxDesc            0                       # Total number of TxDesc written to ISR (Count)
testsys.pci_devices3.EtherDevice.coalescedTxDesc          nan                       # Average number of TxDesc's coalesced into each post ((Count/Count))
testsys.pci_devices3.EtherDevice.postedRxOrn            0                       # Number of RxOrn posted to CPU (Count)
testsys.pci_devices3.EtherDevice.totalRxOrn            0                       # Total number of RxOrn written to ISR (Count)
testsys.pci_devices3.EtherDevice.coalescedRxOrn          nan                       # Average number of RxOrn's coalesced into each post ((Count/Count))
testsys.pci_devices3.EtherDevice.coalescedTotal          nan                       # Average number of interrupts coalesced into each post ((Count/Count))
testsys.pci_devices3.EtherDevice.droppedPackets            0                       # Number of packets dropped (Count)
testsys.pci_devices3.power_state.pwrStateResidencyTicks::UNDEFINED 488022361250                       # Cumulative time (in ticks) in various power states (Tick)
testsys.pci_devices4.EtherDevice.postedInterrupts            0                       # Number of posts to CPU (Count)
testsys.pci_devices4.EtherDevice.descDmaReads            0                       # Number of descriptors the device read w/ DMA (Count)
testsys.pci_devices4.EtherDevice.descDmaWrites            0                       # Number of descriptors the device wrote w/ DMA (Count)
testsys.pci_devices4.EtherDevice.descDmaRdBytes            0                       # Number of descriptor bytes read w/ DMA (Count)
testsys.pci_devices4.EtherDevice.descDmaWrBytes            0                       # Number of descriptor bytes write w/ DMA (Count)
testsys.pci_devices4.EtherDevice.postedSwi            0                       # Number of software interrupts posted to CPU (Count)
testsys.pci_devices4.EtherDevice.totalSwi            0                       # Total number of Swi written to ISR (Count)
testsys.pci_devices4.EtherDevice.coalescedSwi          nan                       # Average number of Swi's coalesced into each post ((Count/Count))
testsys.pci_devices4.EtherDevice.postedRxIdle            0                       # Number of rxIdle interrupts posted to CPU (Count)
testsys.pci_devices4.EtherDevice.totalRxIdle            0                       # Total number of RxIdle written to ISR (Count)
testsys.pci_devices4.EtherDevice.coalescedRxIdle          nan                       # Average number of RxIdle's coalesced into each post ((Count/Count))
testsys.pci_devices4.EtherDevice.postedRxOk            0                       # Number of RxOk interrupts posted to CPU (Count)
testsys.pci_devices4.EtherDevice.totalRxOk            0                       # Total number of RxOk written to ISR (Count)
testsys.pci_devices4.EtherDevice.coalescedRxOk          nan                       # Average number of RxOk's coalesced into each post ((Count/Count))
testsys.pci_devices4.EtherDevice.postedRxDesc            0                       # Number of RxDesc interrupts posted to CPU (Count)
testsys.pci_devices4.EtherDevice.totalRxDesc            0                       # Total number of RxDesc written to ISR (Count)
testsys.pci_devices4.EtherDevice.coalescedRxDesc          nan                       # Average number of RxDesc's coalesced into each post ((Count/Count))
testsys.pci_devices4.EtherDevice.postedTxOk            0                       # Number of TxOk interrupts posted to CPU (Count)
testsys.pci_devices4.EtherDevice.totalTxOk            0                       # Total number of TxOk written to ISR (Count)
testsys.pci_devices4.EtherDevice.coalescedTxOk          nan                       # Average number of TxOk's coalesced into each post ((Count/Count))
testsys.pci_devices4.EtherDevice.postedTxIdle            0                       # Number of TxIdle interrupts posted to CPU (Count)
testsys.pci_devices4.EtherDevice.totalTxIdle            0                       # Total number of TxIdle written to ISR (Count)
testsys.pci_devices4.EtherDevice.coalescedTxIdle          nan                       # Average number of TxIdle's coalesced into each post ((Count/Count))
testsys.pci_devices4.EtherDevice.postedTxDesc            0                       # Number of TxDesc interrupts posted to CPU (Count)
testsys.pci_devices4.EtherDevice.totalTxDesc            0                       # Total number of TxDesc written to ISR (Count)
testsys.pci_devices4.EtherDevice.coalescedTxDesc          nan                       # Average number of TxDesc's coalesced into each post ((Count/Count))
testsys.pci_devices4.EtherDevice.postedRxOrn            0                       # Number of RxOrn posted to CPU (Count)
testsys.pci_devices4.EtherDevice.totalRxOrn            0                       # Total number of RxOrn written to ISR (Count)
testsys.pci_devices4.EtherDevice.coalescedRxOrn          nan                       # Average number of RxOrn's coalesced into each post ((Count/Count))
testsys.pci_devices4.EtherDevice.coalescedTotal          nan                       # Average number of interrupts coalesced into each post ((Count/Count))
testsys.pci_devices4.EtherDevice.droppedPackets            0                       # Number of packets dropped (Count)
testsys.pci_devices4.power_state.pwrStateResidencyTicks::UNDEFINED 488022361250                       # Cumulative time (in ticks) in various power states (Tick)
testsys.realview.bootmem.power_state.pwrStateResidencyTicks::UNDEFINED 488022361250                       # Cumulative time (in ticks) in various power states (Tick)
testsys.realview.clock24MHz.clock               41667                       # Clock period in ticks (Tick)
testsys.realview.clock32KHz.clock            31250000                       # Clock period in ticks (Tick)
testsys.realview.dcc.osc_cpu.clock              16667                       # Clock period in ticks (Tick)
testsys.realview.dcc.osc_ddr.clock              25000                       # Clock period in ticks (Tick)
testsys.realview.dcc.osc_hsbm.clock             25000                       # Clock period in ticks (Tick)
testsys.realview.dcc.osc_pxl.clock              42105                       # Clock period in ticks (Tick)
testsys.realview.dcc.osc_smb.clock              20000                       # Clock period in ticks (Tick)
testsys.realview.dcc.osc_sys.clock              16667                       # Clock period in ticks (Tick)
testsys.realview.el2_watchdog.power_state.pwrStateResidencyTicks::UNDEFINED 488022361250                       # Cumulative time (in ticks) in various power states (Tick)
testsys.realview.energy_ctrl.power_state.pwrStateResidencyTicks::UNDEFINED 488022361250                       # Cumulative time (in ticks) in various power states (Tick)
testsys.realview.flash0.power_state.pwrStateResidencyTicks::UNDEFINED 488022361250                       # Cumulative time (in ticks) in various power states (Tick)
testsys.realview.flash1.power_state.pwrStateResidencyTicks::UNDEFINED 488022361250                       # Cumulative time (in ticks) in various power states (Tick)
testsys.realview.generic_timer_mem.frames0.power_state.pwrStateResidencyTicks::UNDEFINED 488022361250                       # Cumulative time (in ticks) in various power states (Tick)
testsys.realview.generic_timer_mem.frames1.power_state.pwrStateResidencyTicks::UNDEFINED 488022361250                       # Cumulative time (in ticks) in various power states (Tick)
testsys.realview.generic_timer_mem.power_state.pwrStateResidencyTicks::UNDEFINED 488022361250                       # Cumulative time (in ticks) in various power states (Tick)
testsys.realview.gic.power_state.pwrStateResidencyTicks::UNDEFINED 488022361250                       # Cumulative time (in ticks) in various power states (Tick)
testsys.realview.gicv2m.power_state.pwrStateResidencyTicks::UNDEFINED 488022361250                       # Cumulative time (in ticks) in various power states (Tick)
testsys.realview.io_voltage.voltage          3.300000                       # Voltage in Volts (Volt)
testsys.realview.kmi0.power_state.pwrStateResidencyTicks::UNDEFINED 488022361250                       # Cumulative time (in ticks) in various power states (Tick)
testsys.realview.kmi1.power_state.pwrStateResidencyTicks::UNDEFINED 488022361250                       # Cumulative time (in ticks) in various power states (Tick)
testsys.realview.mcc.osc_clcd.clock             42105                       # Clock period in ticks (Tick)
testsys.realview.mcc.osc_mcc.clock              20000                       # Clock period in ticks (Tick)
testsys.realview.mcc.osc_peripheral.clock        41667                       # Clock period in ticks (Tick)
testsys.realview.mcc.osc_system_bus.clock        41667                       # Clock period in ticks (Tick)
testsys.realview.non_trusted_sram.power_state.pwrStateResidencyTicks::UNDEFINED 488022361250                       # Cumulative time (in ticks) in various power states (Tick)
testsys.realview.pci_host.power_state.pwrStateResidencyTicks::UNDEFINED 488022361250                       # Cumulative time (in ticks) in various power states (Tick)
testsys.realview.pwr_ctrl.power_state.pwrStateResidencyTicks::UNDEFINED 488022361250                       # Cumulative time (in ticks) in various power states (Tick)
testsys.realview.realview_io.power_state.pwrStateResidencyTicks::UNDEFINED 488022361250                       # Cumulative time (in ticks) in various power states (Tick)
testsys.realview.rtc.power_state.pwrStateResidencyTicks::UNDEFINED 488022361250                       # Cumulative time (in ticks) in various power states (Tick)
testsys.realview.system_watchdog.power_state.pwrStateResidencyTicks::UNDEFINED 488022361250                       # Cumulative time (in ticks) in various power states (Tick)
testsys.realview.trusted_sram.power_state.pwrStateResidencyTicks::UNDEFINED 488022361250                       # Cumulative time (in ticks) in various power states (Tick)
testsys.realview.trusted_watchdog.power_state.pwrStateResidencyTicks::UNDEFINED 488022361250                       # Cumulative time (in ticks) in various power states (Tick)
testsys.realview.uart0.power_state.pwrStateResidencyTicks::UNDEFINED 488022361250                       # Cumulative time (in ticks) in various power states (Tick)
testsys.realview.uart1.power_state.pwrStateResidencyTicks::UNDEFINED 488022361250                       # Cumulative time (in ticks) in various power states (Tick)
testsys.realview.uart2.power_state.pwrStateResidencyTicks::UNDEFINED 488022361250                       # Cumulative time (in ticks) in various power states (Tick)
testsys.realview.uart3.power_state.pwrStateResidencyTicks::UNDEFINED 488022361250                       # Cumulative time (in ticks) in various power states (Tick)
testsys.realview.vgic.power_state.pwrStateResidencyTicks::UNDEFINED 488022361250                       # Cumulative time (in ticks) in various power states (Tick)
testsys.realview.vio0.power_state.pwrStateResidencyTicks::UNDEFINED 488022361250                       # Cumulative time (in ticks) in various power states (Tick)
testsys.realview.vio1.power_state.pwrStateResidencyTicks::UNDEFINED 488022361250                       # Cumulative time (in ticks) in various power states (Tick)
testsys.realview.vram.power_state.pwrStateResidencyTicks::UNDEFINED 488022361250                       # Cumulative time (in ticks) in various power states (Tick)
testsys.realview.watchdog.power_state.pwrStateResidencyTicks::UNDEFINED 488022361250                       # Cumulative time (in ticks) in various power states (Tick)
testsys.voltage_domain.voltage                      1                       # Voltage in Volts (Volt)
testsys.workload.inst.arm                           0                       # number of arm instructions executed (Count)
testsys.workload.inst.quiesce                      56                       # number of quiesce instructions executed (Count)

---------- End Simulation Statistics   ----------
