
---------- Begin Simulation Statistics ----------
simSeconds                                   0.050500                       # Number of seconds simulated (Second)
simTicks                                  50500000000                       # Number of ticks simulated (Tick)
finalTick                                 50500000000                       # Number of ticks from beginning of simulation (restored from checkpoints and never reset) (Tick)
simFreq                                  1000000000000                       # The number of ticks per simulated second ((Tick/Second))
hostSeconds                                     80.91                       # Real time elapsed on the host (Second)
hostTickRate                                624167993                       # The number of ticks simulated per host second (ticks/s) ((Tick/Second))
hostMemory                                    2280248                       # Number of bytes of host memory used (Byte)
simInsts                                     88908351                       # Number of instructions simulated (Count)
simOps                                      167856483                       # Number of ops (including micro ops) simulated (Count)
hostInstRate                                  1098885                       # Simulator instruction rate (inst/s) ((Count/Second))
hostOpRate                                    2074664                       # Simulator op (including micro ops) rate (op/s) ((Count/Second))
system.clk_domain.clock                           250                       # Clock period in ticks (Tick)
system.cpu0.numCycles                       202000041                       # Number of cpu cycles simulated (Cycle)
system.cpu0.numWorkItemsStarted                     0                       # Number of work items this cpu started (Count)
system.cpu0.numWorkItemsCompleted                   0                       # Number of work items this cpu completed (Count)
system.cpu0.branchPred.lookups               19331492                       # Number of BP lookups (Count)
system.cpu0.branchPred.condPredicted         15886286                       # Number of conditional branches predicted (Count)
system.cpu0.branchPred.condIncorrect           481225                       # Number of conditional branches incorrect (Count)
system.cpu0.branchPred.BTBLookups             7676191                       # Number of BTB lookups (Count)
system.cpu0.branchPred.BTBHits                7497816                       # Number of BTB hits (Count)
system.cpu0.branchPred.BTBHitRatio           0.976763                       # BTB Hit Ratio (Ratio)
system.cpu0.branchPred.RASUsed                 863366                       # Number of times the RAS was used to get a target. (Count)
system.cpu0.branchPred.RASIncorrect                 0                       # Number of incorrect RAS predictions. (Count)
system.cpu0.branchPred.indirectLookups         430135                       # Number of indirect predictor lookups. (Count)
system.cpu0.branchPred.indirectHits            429854                       # Number of indirect target hits. (Count)
system.cpu0.branchPred.indirectMisses             281                       # Number of indirect misses. (Count)
system.cpu0.branchPred.indirectMispredicted          312                       # Number of mispredicted indirect branches. (Count)
system.cpu0.dcache.demandHits::cpu0.data     33707007                       # number of demand (read+write) hits (Count)
system.cpu0.dcache.demandHits::total         33707007                       # number of demand (read+write) hits (Count)
system.cpu0.dcache.overallHits::cpu0.data     33707007                       # number of overall hits (Count)
system.cpu0.dcache.overallHits::total        33707007                       # number of overall hits (Count)
system.cpu0.dcache.demandMisses::cpu0.data       161869                       # number of demand (read+write) misses (Count)
system.cpu0.dcache.demandMisses::total         161869                       # number of demand (read+write) misses (Count)
system.cpu0.dcache.overallMisses::cpu0.data       161869                       # number of overall misses (Count)
system.cpu0.dcache.overallMisses::total        161869                       # number of overall misses (Count)
system.cpu0.dcache.demandAccesses::cpu0.data     33868876                       # number of demand (read+write) accesses (Count)
system.cpu0.dcache.demandAccesses::total     33868876                       # number of demand (read+write) accesses (Count)
system.cpu0.dcache.overallAccesses::cpu0.data     33868876                       # number of overall (read+write) accesses (Count)
system.cpu0.dcache.overallAccesses::total     33868876                       # number of overall (read+write) accesses (Count)
system.cpu0.dcache.demandMissRate::cpu0.data     0.004779                       # miss rate for demand accesses (Ratio)
system.cpu0.dcache.demandMissRate::total     0.004779                       # miss rate for demand accesses (Ratio)
system.cpu0.dcache.overallMissRate::cpu0.data     0.004779                       # miss rate for overall accesses (Ratio)
system.cpu0.dcache.overallMissRate::total     0.004779                       # miss rate for overall accesses (Ratio)
system.cpu0.dcache.blockedCycles::no_mshrs            0                       # number of cycles access was blocked (Cycle)
system.cpu0.dcache.blockedCycles::no_targets            0                       # number of cycles access was blocked (Cycle)
system.cpu0.dcache.blockedCauses::no_mshrs            0                       # number of times access was blocked (Count)
system.cpu0.dcache.blockedCauses::no_targets            0                       # number of times access was blocked (Count)
system.cpu0.dcache.avgBlocked::no_mshrs           nan                       # average number of cycles each access was blocked ((Cycle/Count))
system.cpu0.dcache.avgBlocked::no_targets          nan                       # average number of cycles each access was blocked ((Cycle/Count))
system.cpu0.dcache.writebacks::writebacks       148655                       # number of writebacks (Count)
system.cpu0.dcache.writebacks::total           148655                       # number of writebacks (Count)
system.cpu0.dcache.replacements                160845                       # number of replacements (Count)
system.cpu0.dcache.ReadReq.hits::cpu0.data     20054796                       # number of ReadReq hits (Count)
system.cpu0.dcache.ReadReq.hits::total       20054796                       # number of ReadReq hits (Count)
system.cpu0.dcache.ReadReq.misses::cpu0.data        40884                       # number of ReadReq misses (Count)
system.cpu0.dcache.ReadReq.misses::total        40884                       # number of ReadReq misses (Count)
system.cpu0.dcache.ReadReq.accesses::cpu0.data     20095680                       # number of ReadReq accesses(hits+misses) (Count)
system.cpu0.dcache.ReadReq.accesses::total     20095680                       # number of ReadReq accesses(hits+misses) (Count)
system.cpu0.dcache.ReadReq.missRate::cpu0.data     0.002034                       # miss rate for ReadReq accesses (Ratio)
system.cpu0.dcache.ReadReq.missRate::total     0.002034                       # miss rate for ReadReq accesses (Ratio)
system.cpu0.dcache.WriteReq.hits::cpu0.data     13652211                       # number of WriteReq hits (Count)
system.cpu0.dcache.WriteReq.hits::total      13652211                       # number of WriteReq hits (Count)
system.cpu0.dcache.WriteReq.misses::cpu0.data       120985                       # number of WriteReq misses (Count)
system.cpu0.dcache.WriteReq.misses::total       120985                       # number of WriteReq misses (Count)
system.cpu0.dcache.WriteReq.accesses::cpu0.data     13773196                       # number of WriteReq accesses(hits+misses) (Count)
system.cpu0.dcache.WriteReq.accesses::total     13773196                       # number of WriteReq accesses(hits+misses) (Count)
system.cpu0.dcache.WriteReq.missRate::cpu0.data     0.008784                       # miss rate for WriteReq accesses (Ratio)
system.cpu0.dcache.WriteReq.missRate::total     0.008784                       # miss rate for WriteReq accesses (Ratio)
system.cpu0.dcache.power_state.pwrStateResidencyTicks::UNDEFINED  50500000000                       # Cumulative time (in ticks) in various power states (Tick)
system.cpu0.dcache.tags.tagsInUse         1023.775748                       # Average ticks per tags in use ((Tick/Count))
system.cpu0.dcache.tags.totalRefs            33868876                       # Total number of references to valid blocks. (Count)
system.cpu0.dcache.tags.sampledRefs            161869                       # Sample count of references to valid blocks. (Count)
system.cpu0.dcache.tags.avgRefs            209.236333                       # Average number of references to valid blocks. ((Count/Count))
system.cpu0.dcache.tags.warmupTick                750                       # The tick when the warmup percentage was hit. (Tick)
system.cpu0.dcache.tags.occupancies::cpu0.data  1023.775748                       # Average occupied blocks per tick, per requestor ((Count/Tick))
system.cpu0.dcache.tags.avgOccs::cpu0.data     0.999781                       # Average percentage of cache occupancy ((Ratio/Tick))
system.cpu0.dcache.tags.avgOccs::total       0.999781                       # Average percentage of cache occupancy ((Ratio/Tick))
system.cpu0.dcache.tags.occupanciesTaskId::1024         1024                       # Occupied blocks per task id (Count)
system.cpu0.dcache.tags.ageTaskId_1024::0           15                       # Occupied blocks per task id, per block age (Count)
system.cpu0.dcache.tags.ageTaskId_1024::1          126                       # Occupied blocks per task id, per block age (Count)
system.cpu0.dcache.tags.ageTaskId_1024::2          760                       # Occupied blocks per task id, per block age (Count)
system.cpu0.dcache.tags.ageTaskId_1024::3           86                       # Occupied blocks per task id, per block age (Count)
system.cpu0.dcache.tags.ageTaskId_1024::4           37                       # Occupied blocks per task id, per block age (Count)
system.cpu0.dcache.tags.ratioOccsTaskId::1024            1                       # Ratio of occupied blocks and all blocks, per task id (Ratio)
system.cpu0.dcache.tags.tagAccesses          67899621                       # Number of tag accesses (Count)
system.cpu0.dcache.tags.dataAccesses         67899621                       # Number of data accesses (Count)
system.cpu0.dcache.tags.power_state.pwrStateResidencyTicks::UNDEFINED  50500000000                       # Cumulative time (in ticks) in various power states (Tick)
system.cpu0.dtb_walker_cache.blockedCycles::no_mshrs            0                       # number of cycles access was blocked (Cycle)
system.cpu0.dtb_walker_cache.blockedCycles::no_targets            0                       # number of cycles access was blocked (Cycle)
system.cpu0.dtb_walker_cache.blockedCauses::no_mshrs            0                       # number of times access was blocked (Count)
system.cpu0.dtb_walker_cache.blockedCauses::no_targets            0                       # number of times access was blocked (Count)
system.cpu0.dtb_walker_cache.avgBlocked::no_mshrs          nan                       # average number of cycles each access was blocked ((Cycle/Count))
system.cpu0.dtb_walker_cache.avgBlocked::no_targets          nan                       # average number of cycles each access was blocked ((Cycle/Count))
system.cpu0.dtb_walker_cache.replacements            0                       # number of replacements (Count)
system.cpu0.dtb_walker_cache.power_state.pwrStateResidencyTicks::UNDEFINED  50500000000                       # Cumulative time (in ticks) in various power states (Tick)
system.cpu0.dtb_walker_cache.tags.tagsInUse            0                       # Average ticks per tags in use ((Tick/Count))
system.cpu0.dtb_walker_cache.tags.totalRefs            0                       # Total number of references to valid blocks. (Count)
system.cpu0.dtb_walker_cache.tags.sampledRefs            0                       # Sample count of references to valid blocks. (Count)
system.cpu0.dtb_walker_cache.tags.avgRefs          nan                       # Average number of references to valid blocks. ((Count/Count))
system.cpu0.dtb_walker_cache.tags.warmupTick            0                       # The tick when the warmup percentage was hit. (Tick)
system.cpu0.dtb_walker_cache.tags.tagAccesses            0                       # Number of tag accesses (Count)
system.cpu0.dtb_walker_cache.tags.dataAccesses            0                       # Number of data accesses (Count)
system.cpu0.dtb_walker_cache.tags.power_state.pwrStateResidencyTicks::UNDEFINED  50500000000                       # Cumulative time (in ticks) in various power states (Tick)
system.cpu0.exec_context.thread_0.numInsts     88908351                       # Number of instructions committed (Count)
system.cpu0.exec_context.thread_0.numOps    167856483                       # Number of ops (including micro ops) committed (Count)
system.cpu0.exec_context.thread_0.numIntAluAccesses    164938182                       # Number of integer alu accesses (Count)
system.cpu0.exec_context.thread_0.numFpAluAccesses      3750890                       # Number of float alu accesses (Count)
system.cpu0.exec_context.thread_0.numVecAluAccesses            0                       # Number of vector alu accesses (Count)
system.cpu0.exec_context.thread_0.numCallsReturns      1726738                       # Number of times a function call or return occured (Count)
system.cpu0.exec_context.thread_0.numCondCtrlInsts     15886270                       # Number of instructions that are conditional controls (Count)
system.cpu0.exec_context.thread_0.numIntInsts    164938182                       # Number of integer instructions (Count)
system.cpu0.exec_context.thread_0.numFpInsts      3750890                       # Number of float instructions (Count)
system.cpu0.exec_context.thread_0.numVecInsts            0                       # Number of vector instructions (Count)
system.cpu0.exec_context.thread_0.numIntRegReads    329471659                       # Number of times the integer registers were read (Count)
system.cpu0.exec_context.thread_0.numIntRegWrites    133090616                       # Number of times the integer registers were written (Count)
system.cpu0.exec_context.thread_0.numFpRegReads      4168518                       # Number of times the floating registers were read (Count)
system.cpu0.exec_context.thread_0.numFpRegWrites      2274455                       # Number of times the floating registers were written (Count)
system.cpu0.exec_context.thread_0.numVecRegReads            0                       # Number of times the vector registers were read (Count)
system.cpu0.exec_context.thread_0.numVecRegWrites            0                       # Number of times the vector registers were written (Count)
system.cpu0.exec_context.thread_0.numVecPredRegReads            0                       # Number of times the predicate registers were read (Count)
system.cpu0.exec_context.thread_0.numVecPredRegWrites            0                       # Number of times the predicate registers were written (Count)
system.cpu0.exec_context.thread_0.numCCRegReads    104086470                       # Number of times the CC registers were read (Count)
system.cpu0.exec_context.thread_0.numCCRegWrites     50554765                       # Number of times the CC registers were written (Count)
system.cpu0.exec_context.thread_0.numMemRefs     33852942                       # Number of memory refs (Count)
system.cpu0.exec_context.thread_0.numLoadInsts     20084103                       # Number of load instructions (Count)
system.cpu0.exec_context.thread_0.numStoreInsts     13768839                       # Number of store instructions (Count)
system.cpu0.exec_context.thread_0.numIdleCycles            0                       # Number of idle cycles (Cycle)
system.cpu0.exec_context.thread_0.numBusyCycles    202000041                       # Number of busy cycles (Cycle)
system.cpu0.exec_context.thread_0.notIdleFraction            1                       # Percentage of non-idle cycles (Ratio)
system.cpu0.exec_context.thread_0.idleFraction            0                       # Percentage of idle cycles (Ratio)
system.cpu0.exec_context.thread_0.numBranches     19331492                       # Number of branches fetched (Count)
system.cpu0.exec_context.thread_0.numPredictedBranches      8791036                       # Number of branches predicted as taken (Count)
system.cpu0.exec_context.thread_0.numBranchMispred       481225                       # Number of branch mispredictions (Count)
system.cpu0.exec_context.thread_0.statExecutedInstType::No_OpClass      1308355      0.78%      0.78% # Class of executed instruction. (Count)
system.cpu0.exec_context.thread_0.statExecutedInstType::IntAlu    129726005     77.28%     78.06% # Class of executed instruction. (Count)
system.cpu0.exec_context.thread_0.statExecutedInstType::IntMult       740879      0.44%     78.50% # Class of executed instruction. (Count)
system.cpu0.exec_context.thread_0.statExecutedInstType::IntDiv       591553      0.35%     78.86% # Class of executed instruction. (Count)
system.cpu0.exec_context.thread_0.statExecutedInstType::FloatAdd       388116      0.23%     79.09% # Class of executed instruction. (Count)
system.cpu0.exec_context.thread_0.statExecutedInstType::FloatCmp            0      0.00%     79.09% # Class of executed instruction. (Count)
system.cpu0.exec_context.thread_0.statExecutedInstType::FloatCvt           32      0.00%     79.09% # Class of executed instruction. (Count)
system.cpu0.exec_context.thread_0.statExecutedInstType::FloatMult            0      0.00%     79.09% # Class of executed instruction. (Count)
system.cpu0.exec_context.thread_0.statExecutedInstType::FloatMultAcc            0      0.00%     79.09% # Class of executed instruction. (Count)
system.cpu0.exec_context.thread_0.statExecutedInstType::FloatDiv            0      0.00%     79.09% # Class of executed instruction. (Count)
system.cpu0.exec_context.thread_0.statExecutedInstType::FloatMisc            0      0.00%     79.09% # Class of executed instruction. (Count)
system.cpu0.exec_context.thread_0.statExecutedInstType::FloatSqrt            0      0.00%     79.09% # Class of executed instruction. (Count)
system.cpu0.exec_context.thread_0.statExecutedInstType::SimdAdd          400      0.00%     79.09% # Class of executed instruction. (Count)
system.cpu0.exec_context.thread_0.statExecutedInstType::SimdAddAcc            0      0.00%     79.09% # Class of executed instruction. (Count)
system.cpu0.exec_context.thread_0.statExecutedInstType::SimdAlu        84396      0.05%     79.14% # Class of executed instruction. (Count)
system.cpu0.exec_context.thread_0.statExecutedInstType::SimdCmp           38      0.00%     79.14% # Class of executed instruction. (Count)
system.cpu0.exec_context.thread_0.statExecutedInstType::SimdCvt       214330      0.13%     79.27% # Class of executed instruction. (Count)
system.cpu0.exec_context.thread_0.statExecutedInstType::SimdMisc       951572      0.57%     79.83% # Class of executed instruction. (Count)
system.cpu0.exec_context.thread_0.statExecutedInstType::SimdMult            0      0.00%     79.83% # Class of executed instruction. (Count)
system.cpu0.exec_context.thread_0.statExecutedInstType::SimdMultAcc            0      0.00%     79.83% # Class of executed instruction. (Count)
system.cpu0.exec_context.thread_0.statExecutedInstType::SimdShift          112      0.00%     79.83% # Class of executed instruction. (Count)
system.cpu0.exec_context.thread_0.statExecutedInstType::SimdShiftAcc            0      0.00%     79.83% # Class of executed instruction. (Count)
system.cpu0.exec_context.thread_0.statExecutedInstType::SimdDiv            0      0.00%     79.83% # Class of executed instruction. (Count)
system.cpu0.exec_context.thread_0.statExecutedInstType::SimdSqrt            0      0.00%     79.83% # Class of executed instruction. (Count)
system.cpu0.exec_context.thread_0.statExecutedInstType::SimdFloatAdd            0      0.00%     79.83% # Class of executed instruction. (Count)
system.cpu0.exec_context.thread_0.statExecutedInstType::SimdFloatAlu            0      0.00%     79.83% # Class of executed instruction. (Count)
system.cpu0.exec_context.thread_0.statExecutedInstType::SimdFloatCmp            0      0.00%     79.83% # Class of executed instruction. (Count)
system.cpu0.exec_context.thread_0.statExecutedInstType::SimdFloatCvt            0      0.00%     79.83% # Class of executed instruction. (Count)
system.cpu0.exec_context.thread_0.statExecutedInstType::SimdFloatDiv            0      0.00%     79.83% # Class of executed instruction. (Count)
system.cpu0.exec_context.thread_0.statExecutedInstType::SimdFloatMisc            0      0.00%     79.83% # Class of executed instruction. (Count)
system.cpu0.exec_context.thread_0.statExecutedInstType::SimdFloatMult            0      0.00%     79.83% # Class of executed instruction. (Count)
system.cpu0.exec_context.thread_0.statExecutedInstType::SimdFloatMultAcc            0      0.00%     79.83% # Class of executed instruction. (Count)
system.cpu0.exec_context.thread_0.statExecutedInstType::SimdFloatSqrt            0      0.00%     79.83% # Class of executed instruction. (Count)
system.cpu0.exec_context.thread_0.statExecutedInstType::SimdReduceAdd            0      0.00%     79.83% # Class of executed instruction. (Count)
system.cpu0.exec_context.thread_0.statExecutedInstType::SimdReduceAlu            0      0.00%     79.83% # Class of executed instruction. (Count)
system.cpu0.exec_context.thread_0.statExecutedInstType::SimdReduceCmp            0      0.00%     79.83% # Class of executed instruction. (Count)
system.cpu0.exec_context.thread_0.statExecutedInstType::SimdFloatReduceAdd            0      0.00%     79.83% # Class of executed instruction. (Count)
system.cpu0.exec_context.thread_0.statExecutedInstType::SimdFloatReduceCmp            0      0.00%     79.83% # Class of executed instruction. (Count)
system.cpu0.exec_context.thread_0.statExecutedInstType::SimdAes            0      0.00%     79.83% # Class of executed instruction. (Count)
system.cpu0.exec_context.thread_0.statExecutedInstType::SimdAesMix            0      0.00%     79.83% # Class of executed instruction. (Count)
system.cpu0.exec_context.thread_0.statExecutedInstType::SimdSha1Hash            0      0.00%     79.83% # Class of executed instruction. (Count)
system.cpu0.exec_context.thread_0.statExecutedInstType::SimdSha1Hash2            0      0.00%     79.83% # Class of executed instruction. (Count)
system.cpu0.exec_context.thread_0.statExecutedInstType::SimdSha256Hash            0      0.00%     79.83% # Class of executed instruction. (Count)
system.cpu0.exec_context.thread_0.statExecutedInstType::SimdSha256Hash2            0      0.00%     79.83% # Class of executed instruction. (Count)
system.cpu0.exec_context.thread_0.statExecutedInstType::SimdShaSigma2            0      0.00%     79.83% # Class of executed instruction. (Count)
system.cpu0.exec_context.thread_0.statExecutedInstType::SimdShaSigma3            0      0.00%     79.83% # Class of executed instruction. (Count)
system.cpu0.exec_context.thread_0.statExecutedInstType::SimdPredAlu            0      0.00%     79.83% # Class of executed instruction. (Count)
system.cpu0.exec_context.thread_0.statExecutedInstType::MemRead     19470816     11.60%     91.43% # Class of executed instruction. (Count)
system.cpu0.exec_context.thread_0.statExecutedInstType::MemWrite     12506319      7.45%     98.88% # Class of executed instruction. (Count)
system.cpu0.exec_context.thread_0.statExecutedInstType::FloatMemRead       613287      0.37%     99.25% # Class of executed instruction. (Count)
system.cpu0.exec_context.thread_0.statExecutedInstType::FloatMemWrite      1262520      0.75%    100.00% # Class of executed instruction. (Count)
system.cpu0.exec_context.thread_0.statExecutedInstType::IprAccess            0      0.00%    100.00% # Class of executed instruction. (Count)
system.cpu0.exec_context.thread_0.statExecutedInstType::InstPrefetch            0      0.00%    100.00% # Class of executed instruction. (Count)
system.cpu0.exec_context.thread_0.statExecutedInstType::total    167858730                       # Class of executed instruction. (Count)
system.cpu0.icache.demandHits::cpu0.inst    123050561                       # number of demand (read+write) hits (Count)
system.cpu0.icache.demandHits::total        123050561                       # number of demand (read+write) hits (Count)
system.cpu0.icache.overallHits::cpu0.inst    123050561                       # number of overall hits (Count)
system.cpu0.icache.overallHits::total       123050561                       # number of overall hits (Count)
system.cpu0.icache.demandMisses::cpu0.inst         1304                       # number of demand (read+write) misses (Count)
system.cpu0.icache.demandMisses::total           1304                       # number of demand (read+write) misses (Count)
system.cpu0.icache.overallMisses::cpu0.inst         1304                       # number of overall misses (Count)
system.cpu0.icache.overallMisses::total          1304                       # number of overall misses (Count)
system.cpu0.icache.demandAccesses::cpu0.inst    123051865                       # number of demand (read+write) accesses (Count)
system.cpu0.icache.demandAccesses::total    123051865                       # number of demand (read+write) accesses (Count)
system.cpu0.icache.overallAccesses::cpu0.inst    123051865                       # number of overall (read+write) accesses (Count)
system.cpu0.icache.overallAccesses::total    123051865                       # number of overall (read+write) accesses (Count)
system.cpu0.icache.demandMissRate::cpu0.inst     0.000011                       # miss rate for demand accesses (Ratio)
system.cpu0.icache.demandMissRate::total     0.000011                       # miss rate for demand accesses (Ratio)
system.cpu0.icache.overallMissRate::cpu0.inst     0.000011                       # miss rate for overall accesses (Ratio)
system.cpu0.icache.overallMissRate::total     0.000011                       # miss rate for overall accesses (Ratio)
system.cpu0.icache.blockedCycles::no_mshrs            0                       # number of cycles access was blocked (Cycle)
system.cpu0.icache.blockedCycles::no_targets            0                       # number of cycles access was blocked (Cycle)
system.cpu0.icache.blockedCauses::no_mshrs            0                       # number of times access was blocked (Count)
system.cpu0.icache.blockedCauses::no_targets            0                       # number of times access was blocked (Count)
system.cpu0.icache.avgBlocked::no_mshrs           nan                       # average number of cycles each access was blocked ((Cycle/Count))
system.cpu0.icache.avgBlocked::no_targets          nan                       # average number of cycles each access was blocked ((Cycle/Count))
system.cpu0.icache.writebacks::writebacks          802                       # number of writebacks (Count)
system.cpu0.icache.writebacks::total              802                       # number of writebacks (Count)
system.cpu0.icache.replacements                   802                       # number of replacements (Count)
system.cpu0.icache.ReadReq.hits::cpu0.inst    123050561                       # number of ReadReq hits (Count)
system.cpu0.icache.ReadReq.hits::total      123050561                       # number of ReadReq hits (Count)
system.cpu0.icache.ReadReq.misses::cpu0.inst         1304                       # number of ReadReq misses (Count)
system.cpu0.icache.ReadReq.misses::total         1304                       # number of ReadReq misses (Count)
system.cpu0.icache.ReadReq.accesses::cpu0.inst    123051865                       # number of ReadReq accesses(hits+misses) (Count)
system.cpu0.icache.ReadReq.accesses::total    123051865                       # number of ReadReq accesses(hits+misses) (Count)
system.cpu0.icache.ReadReq.missRate::cpu0.inst     0.000011                       # miss rate for ReadReq accesses (Ratio)
system.cpu0.icache.ReadReq.missRate::total     0.000011                       # miss rate for ReadReq accesses (Ratio)
system.cpu0.icache.power_state.pwrStateResidencyTicks::UNDEFINED  50500000000                       # Cumulative time (in ticks) in various power states (Tick)
system.cpu0.icache.tags.tagsInUse          501.867663                       # Average ticks per tags in use ((Tick/Count))
system.cpu0.icache.tags.totalRefs           123051865                       # Total number of references to valid blocks. (Count)
system.cpu0.icache.tags.sampledRefs              1304                       # Sample count of references to valid blocks. (Count)
system.cpu0.icache.tags.avgRefs          94364.927147                       # Average number of references to valid blocks. ((Count/Count))
system.cpu0.icache.tags.warmupTick                  0                       # The tick when the warmup percentage was hit. (Tick)
system.cpu0.icache.tags.occupancies::cpu0.inst   501.867663                       # Average occupied blocks per tick, per requestor ((Count/Tick))
system.cpu0.icache.tags.avgOccs::cpu0.inst     0.980210                       # Average percentage of cache occupancy ((Ratio/Tick))
system.cpu0.icache.tags.avgOccs::total       0.980210                       # Average percentage of cache occupancy ((Ratio/Tick))
system.cpu0.icache.tags.occupanciesTaskId::1024          502                       # Occupied blocks per task id (Count)
system.cpu0.icache.tags.ageTaskId_1024::2            1                       # Occupied blocks per task id, per block age (Count)
system.cpu0.icache.tags.ageTaskId_1024::4          501                       # Occupied blocks per task id, per block age (Count)
system.cpu0.icache.tags.ratioOccsTaskId::1024     0.980469                       # Ratio of occupied blocks and all blocks, per task id (Ratio)
system.cpu0.icache.tags.tagAccesses         246105034                       # Number of tag accesses (Count)
system.cpu0.icache.tags.dataAccesses        246105034                       # Number of data accesses (Count)
system.cpu0.icache.tags.power_state.pwrStateResidencyTicks::UNDEFINED  50500000000                       # Cumulative time (in ticks) in various power states (Tick)
system.cpu0.interrupts.clk_domain.clock          4000                       # Clock period in ticks (Tick)
system.cpu0.itb_walker_cache.blockedCycles::no_mshrs            0                       # number of cycles access was blocked (Cycle)
system.cpu0.itb_walker_cache.blockedCycles::no_targets            0                       # number of cycles access was blocked (Cycle)
system.cpu0.itb_walker_cache.blockedCauses::no_mshrs            0                       # number of times access was blocked (Count)
system.cpu0.itb_walker_cache.blockedCauses::no_targets            0                       # number of times access was blocked (Count)
system.cpu0.itb_walker_cache.avgBlocked::no_mshrs          nan                       # average number of cycles each access was blocked ((Cycle/Count))
system.cpu0.itb_walker_cache.avgBlocked::no_targets          nan                       # average number of cycles each access was blocked ((Cycle/Count))
system.cpu0.itb_walker_cache.replacements            0                       # number of replacements (Count)
system.cpu0.itb_walker_cache.power_state.pwrStateResidencyTicks::UNDEFINED  50500000000                       # Cumulative time (in ticks) in various power states (Tick)
system.cpu0.itb_walker_cache.tags.tagsInUse            0                       # Average ticks per tags in use ((Tick/Count))
system.cpu0.itb_walker_cache.tags.totalRefs            0                       # Total number of references to valid blocks. (Count)
system.cpu0.itb_walker_cache.tags.sampledRefs            0                       # Sample count of references to valid blocks. (Count)
system.cpu0.itb_walker_cache.tags.avgRefs          nan                       # Average number of references to valid blocks. ((Count/Count))
system.cpu0.itb_walker_cache.tags.warmupTick            0                       # The tick when the warmup percentage was hit. (Tick)
system.cpu0.itb_walker_cache.tags.tagAccesses            0                       # Number of tag accesses (Count)
system.cpu0.itb_walker_cache.tags.dataAccesses            0                       # Number of data accesses (Count)
system.cpu0.itb_walker_cache.tags.power_state.pwrStateResidencyTicks::UNDEFINED  50500000000                       # Cumulative time (in ticks) in various power states (Tick)
system.cpu0.mmu.dtb.rdAccesses               20095731                       # TLB accesses on read requests (Count)
system.cpu0.mmu.dtb.wrAccesses               13775273                       # TLB accesses on write requests (Count)
system.cpu0.mmu.dtb.rdMisses                    23135                       # TLB misses on read requests (Count)
system.cpu0.mmu.dtb.wrMisses                    31232                       # TLB misses on write requests (Count)
system.cpu0.mmu.dtb.walker.power_state.pwrStateResidencyTicks::UNDEFINED  50500000000                       # Cumulative time (in ticks) in various power states (Tick)
system.cpu0.mmu.itb.rdAccesses                      0                       # TLB accesses on read requests (Count)
system.cpu0.mmu.itb.wrAccesses              123051909                       # TLB accesses on write requests (Count)
system.cpu0.mmu.itb.rdMisses                        0                       # TLB misses on read requests (Count)
system.cpu0.mmu.itb.wrMisses                      165                       # TLB misses on write requests (Count)
system.cpu0.mmu.itb.walker.power_state.pwrStateResidencyTicks::UNDEFINED  50500000000                       # Cumulative time (in ticks) in various power states (Tick)
system.cpu0.power_state.pwrStateResidencyTicks::ON  50500000000                       # Cumulative time (in ticks) in various power states (Tick)
system.cpu0.thread_0.numInsts                       0                       # Number of Instructions committed (Count)
system.cpu0.thread_0.numOps                         0                       # Number of Ops committed (Count)
system.cpu0.thread_0.numMemRefs                     0                       # Number of Memory References (Count)
system.cpu0.workload.numSyscalls                  119                       # Number of system calls (Count)
system.cpu1.numCycles                               0                       # Number of cpu cycles simulated (Cycle)
system.cpu1.numWorkItemsStarted                     0                       # Number of work items this cpu started (Count)
system.cpu1.numWorkItemsCompleted                   0                       # Number of work items this cpu completed (Count)
system.cpu1.branchPred.lookups                      0                       # Number of BP lookups (Count)
system.cpu1.branchPred.condPredicted                0                       # Number of conditional branches predicted (Count)
system.cpu1.branchPred.condIncorrect                0                       # Number of conditional branches incorrect (Count)
system.cpu1.branchPred.BTBLookups                   0                       # Number of BTB lookups (Count)
system.cpu1.branchPred.BTBHits                      0                       # Number of BTB hits (Count)
system.cpu1.branchPred.BTBHitRatio                nan                       # BTB Hit Ratio (Ratio)
system.cpu1.branchPred.RASUsed                      0                       # Number of times the RAS was used to get a target. (Count)
system.cpu1.branchPred.RASIncorrect                 0                       # Number of incorrect RAS predictions. (Count)
system.cpu1.branchPred.indirectLookups              0                       # Number of indirect predictor lookups. (Count)
system.cpu1.branchPred.indirectHits                 0                       # Number of indirect target hits. (Count)
system.cpu1.branchPred.indirectMisses               0                       # Number of indirect misses. (Count)
system.cpu1.branchPred.indirectMispredicted            0                       # Number of mispredicted indirect branches. (Count)
system.cpu1.dcache.blockedCycles::no_mshrs            0                       # number of cycles access was blocked (Cycle)
system.cpu1.dcache.blockedCycles::no_targets            0                       # number of cycles access was blocked (Cycle)
system.cpu1.dcache.blockedCauses::no_mshrs            0                       # number of times access was blocked (Count)
system.cpu1.dcache.blockedCauses::no_targets            0                       # number of times access was blocked (Count)
system.cpu1.dcache.avgBlocked::no_mshrs           nan                       # average number of cycles each access was blocked ((Cycle/Count))
system.cpu1.dcache.avgBlocked::no_targets          nan                       # average number of cycles each access was blocked ((Cycle/Count))
system.cpu1.dcache.replacements                     0                       # number of replacements (Count)
system.cpu1.dcache.power_state.pwrStateResidencyTicks::UNDEFINED  50500000000                       # Cumulative time (in ticks) in various power states (Tick)
system.cpu1.dcache.tags.tagsInUse                   0                       # Average ticks per tags in use ((Tick/Count))
system.cpu1.dcache.tags.totalRefs                   0                       # Total number of references to valid blocks. (Count)
system.cpu1.dcache.tags.sampledRefs                 0                       # Sample count of references to valid blocks. (Count)
system.cpu1.dcache.tags.avgRefs                   nan                       # Average number of references to valid blocks. ((Count/Count))
system.cpu1.dcache.tags.warmupTick                  0                       # The tick when the warmup percentage was hit. (Tick)
system.cpu1.dcache.tags.tagAccesses                 0                       # Number of tag accesses (Count)
system.cpu1.dcache.tags.dataAccesses                0                       # Number of data accesses (Count)
system.cpu1.dcache.tags.power_state.pwrStateResidencyTicks::UNDEFINED  50500000000                       # Cumulative time (in ticks) in various power states (Tick)
system.cpu1.dtb_walker_cache.blockedCycles::no_mshrs            0                       # number of cycles access was blocked (Cycle)
system.cpu1.dtb_walker_cache.blockedCycles::no_targets            0                       # number of cycles access was blocked (Cycle)
system.cpu1.dtb_walker_cache.blockedCauses::no_mshrs            0                       # number of times access was blocked (Count)
system.cpu1.dtb_walker_cache.blockedCauses::no_targets            0                       # number of times access was blocked (Count)
system.cpu1.dtb_walker_cache.avgBlocked::no_mshrs          nan                       # average number of cycles each access was blocked ((Cycle/Count))
system.cpu1.dtb_walker_cache.avgBlocked::no_targets          nan                       # average number of cycles each access was blocked ((Cycle/Count))
system.cpu1.dtb_walker_cache.replacements            0                       # number of replacements (Count)
system.cpu1.dtb_walker_cache.power_state.pwrStateResidencyTicks::UNDEFINED  50500000000                       # Cumulative time (in ticks) in various power states (Tick)
system.cpu1.dtb_walker_cache.tags.tagsInUse            0                       # Average ticks per tags in use ((Tick/Count))
system.cpu1.dtb_walker_cache.tags.totalRefs            0                       # Total number of references to valid blocks. (Count)
system.cpu1.dtb_walker_cache.tags.sampledRefs            0                       # Sample count of references to valid blocks. (Count)
system.cpu1.dtb_walker_cache.tags.avgRefs          nan                       # Average number of references to valid blocks. ((Count/Count))
system.cpu1.dtb_walker_cache.tags.warmupTick            0                       # The tick when the warmup percentage was hit. (Tick)
system.cpu1.dtb_walker_cache.tags.tagAccesses            0                       # Number of tag accesses (Count)
system.cpu1.dtb_walker_cache.tags.dataAccesses            0                       # Number of data accesses (Count)
system.cpu1.dtb_walker_cache.tags.power_state.pwrStateResidencyTicks::UNDEFINED  50500000000                       # Cumulative time (in ticks) in various power states (Tick)
system.cpu1.exec_context.thread_0.numInsts            0                       # Number of instructions committed (Count)
system.cpu1.exec_context.thread_0.numOps            0                       # Number of ops (including micro ops) committed (Count)
system.cpu1.exec_context.thread_0.numIntAluAccesses            0                       # Number of integer alu accesses (Count)
system.cpu1.exec_context.thread_0.numFpAluAccesses            0                       # Number of float alu accesses (Count)
system.cpu1.exec_context.thread_0.numVecAluAccesses            0                       # Number of vector alu accesses (Count)
system.cpu1.exec_context.thread_0.numCallsReturns            0                       # Number of times a function call or return occured (Count)
system.cpu1.exec_context.thread_0.numCondCtrlInsts            0                       # Number of instructions that are conditional controls (Count)
system.cpu1.exec_context.thread_0.numIntInsts            0                       # Number of integer instructions (Count)
system.cpu1.exec_context.thread_0.numFpInsts            0                       # Number of float instructions (Count)
system.cpu1.exec_context.thread_0.numVecInsts            0                       # Number of vector instructions (Count)
system.cpu1.exec_context.thread_0.numIntRegReads            0                       # Number of times the integer registers were read (Count)
system.cpu1.exec_context.thread_0.numIntRegWrites            0                       # Number of times the integer registers were written (Count)
system.cpu1.exec_context.thread_0.numFpRegReads            0                       # Number of times the floating registers were read (Count)
system.cpu1.exec_context.thread_0.numFpRegWrites            0                       # Number of times the floating registers were written (Count)
system.cpu1.exec_context.thread_0.numVecRegReads            0                       # Number of times the vector registers were read (Count)
system.cpu1.exec_context.thread_0.numVecRegWrites            0                       # Number of times the vector registers were written (Count)
system.cpu1.exec_context.thread_0.numVecPredRegReads            0                       # Number of times the predicate registers were read (Count)
system.cpu1.exec_context.thread_0.numVecPredRegWrites            0                       # Number of times the predicate registers were written (Count)
system.cpu1.exec_context.thread_0.numMemRefs            0                       # Number of memory refs (Count)
system.cpu1.exec_context.thread_0.numLoadInsts            0                       # Number of load instructions (Count)
system.cpu1.exec_context.thread_0.numStoreInsts            0                       # Number of store instructions (Count)
system.cpu1.exec_context.thread_0.numIdleCycles            0                       # Number of idle cycles (Cycle)
system.cpu1.exec_context.thread_0.numBusyCycles            0                       # Number of busy cycles (Cycle)
system.cpu1.exec_context.thread_0.notIdleFraction            0                       # Percentage of non-idle cycles (Ratio)
system.cpu1.exec_context.thread_0.idleFraction            1                       # Percentage of idle cycles (Ratio)
system.cpu1.exec_context.thread_0.statExecutedInstType::No_OpClass            0                       # Class of executed instruction. (Count)
system.cpu1.exec_context.thread_0.statExecutedInstType::IntAlu            0                       # Class of executed instruction. (Count)
system.cpu1.exec_context.thread_0.statExecutedInstType::IntMult            0                       # Class of executed instruction. (Count)
system.cpu1.exec_context.thread_0.statExecutedInstType::IntDiv            0                       # Class of executed instruction. (Count)
system.cpu1.exec_context.thread_0.statExecutedInstType::FloatAdd            0                       # Class of executed instruction. (Count)
system.cpu1.exec_context.thread_0.statExecutedInstType::FloatCmp            0                       # Class of executed instruction. (Count)
system.cpu1.exec_context.thread_0.statExecutedInstType::FloatCvt            0                       # Class of executed instruction. (Count)
system.cpu1.exec_context.thread_0.statExecutedInstType::FloatMult            0                       # Class of executed instruction. (Count)
system.cpu1.exec_context.thread_0.statExecutedInstType::FloatMultAcc            0                       # Class of executed instruction. (Count)
system.cpu1.exec_context.thread_0.statExecutedInstType::FloatDiv            0                       # Class of executed instruction. (Count)
system.cpu1.exec_context.thread_0.statExecutedInstType::FloatMisc            0                       # Class of executed instruction. (Count)
system.cpu1.exec_context.thread_0.statExecutedInstType::FloatSqrt            0                       # Class of executed instruction. (Count)
system.cpu1.exec_context.thread_0.statExecutedInstType::SimdAdd            0                       # Class of executed instruction. (Count)
system.cpu1.exec_context.thread_0.statExecutedInstType::SimdAddAcc            0                       # Class of executed instruction. (Count)
system.cpu1.exec_context.thread_0.statExecutedInstType::SimdAlu            0                       # Class of executed instruction. (Count)
system.cpu1.exec_context.thread_0.statExecutedInstType::SimdCmp            0                       # Class of executed instruction. (Count)
system.cpu1.exec_context.thread_0.statExecutedInstType::SimdCvt            0                       # Class of executed instruction. (Count)
system.cpu1.exec_context.thread_0.statExecutedInstType::SimdMisc            0                       # Class of executed instruction. (Count)
system.cpu1.exec_context.thread_0.statExecutedInstType::SimdMult            0                       # Class of executed instruction. (Count)
system.cpu1.exec_context.thread_0.statExecutedInstType::SimdMultAcc            0                       # Class of executed instruction. (Count)
system.cpu1.exec_context.thread_0.statExecutedInstType::SimdShift            0                       # Class of executed instruction. (Count)
system.cpu1.exec_context.thread_0.statExecutedInstType::SimdShiftAcc            0                       # Class of executed instruction. (Count)
system.cpu1.exec_context.thread_0.statExecutedInstType::SimdDiv            0                       # Class of executed instruction. (Count)
system.cpu1.exec_context.thread_0.statExecutedInstType::SimdSqrt            0                       # Class of executed instruction. (Count)
system.cpu1.exec_context.thread_0.statExecutedInstType::SimdFloatAdd            0                       # Class of executed instruction. (Count)
system.cpu1.exec_context.thread_0.statExecutedInstType::SimdFloatAlu            0                       # Class of executed instruction. (Count)
system.cpu1.exec_context.thread_0.statExecutedInstType::SimdFloatCmp            0                       # Class of executed instruction. (Count)
system.cpu1.exec_context.thread_0.statExecutedInstType::SimdFloatCvt            0                       # Class of executed instruction. (Count)
system.cpu1.exec_context.thread_0.statExecutedInstType::SimdFloatDiv            0                       # Class of executed instruction. (Count)
system.cpu1.exec_context.thread_0.statExecutedInstType::SimdFloatMisc            0                       # Class of executed instruction. (Count)
system.cpu1.exec_context.thread_0.statExecutedInstType::SimdFloatMult            0                       # Class of executed instruction. (Count)
system.cpu1.exec_context.thread_0.statExecutedInstType::SimdFloatMultAcc            0                       # Class of executed instruction. (Count)
system.cpu1.exec_context.thread_0.statExecutedInstType::SimdFloatSqrt            0                       # Class of executed instruction. (Count)
system.cpu1.exec_context.thread_0.statExecutedInstType::SimdReduceAdd            0                       # Class of executed instruction. (Count)
system.cpu1.exec_context.thread_0.statExecutedInstType::SimdReduceAlu            0                       # Class of executed instruction. (Count)
system.cpu1.exec_context.thread_0.statExecutedInstType::SimdReduceCmp            0                       # Class of executed instruction. (Count)
system.cpu1.exec_context.thread_0.statExecutedInstType::SimdFloatReduceAdd            0                       # Class of executed instruction. (Count)
system.cpu1.exec_context.thread_0.statExecutedInstType::SimdFloatReduceCmp            0                       # Class of executed instruction. (Count)
system.cpu1.exec_context.thread_0.statExecutedInstType::SimdAes            0                       # Class of executed instruction. (Count)
system.cpu1.exec_context.thread_0.statExecutedInstType::SimdAesMix            0                       # Class of executed instruction. (Count)
system.cpu1.exec_context.thread_0.statExecutedInstType::SimdSha1Hash            0                       # Class of executed instruction. (Count)
system.cpu1.exec_context.thread_0.statExecutedInstType::SimdSha1Hash2            0                       # Class of executed instruction. (Count)
system.cpu1.exec_context.thread_0.statExecutedInstType::SimdSha256Hash            0                       # Class of executed instruction. (Count)
system.cpu1.exec_context.thread_0.statExecutedInstType::SimdSha256Hash2            0                       # Class of executed instruction. (Count)
system.cpu1.exec_context.thread_0.statExecutedInstType::SimdShaSigma2            0                       # Class of executed instruction. (Count)
system.cpu1.exec_context.thread_0.statExecutedInstType::SimdShaSigma3            0                       # Class of executed instruction. (Count)
system.cpu1.exec_context.thread_0.statExecutedInstType::SimdPredAlu            0                       # Class of executed instruction. (Count)
system.cpu1.exec_context.thread_0.statExecutedInstType::MemRead            0                       # Class of executed instruction. (Count)
system.cpu1.exec_context.thread_0.statExecutedInstType::MemWrite            0                       # Class of executed instruction. (Count)
system.cpu1.exec_context.thread_0.statExecutedInstType::FloatMemRead            0                       # Class of executed instruction. (Count)
system.cpu1.exec_context.thread_0.statExecutedInstType::FloatMemWrite            0                       # Class of executed instruction. (Count)
system.cpu1.exec_context.thread_0.statExecutedInstType::IprAccess            0                       # Class of executed instruction. (Count)
system.cpu1.exec_context.thread_0.statExecutedInstType::InstPrefetch            0                       # Class of executed instruction. (Count)
system.cpu1.exec_context.thread_0.statExecutedInstType::total            0                       # Class of executed instruction. (Count)
system.cpu1.icache.blockedCycles::no_mshrs            0                       # number of cycles access was blocked (Cycle)
system.cpu1.icache.blockedCycles::no_targets            0                       # number of cycles access was blocked (Cycle)
system.cpu1.icache.blockedCauses::no_mshrs            0                       # number of times access was blocked (Count)
system.cpu1.icache.blockedCauses::no_targets            0                       # number of times access was blocked (Count)
system.cpu1.icache.avgBlocked::no_mshrs           nan                       # average number of cycles each access was blocked ((Cycle/Count))
system.cpu1.icache.avgBlocked::no_targets          nan                       # average number of cycles each access was blocked ((Cycle/Count))
system.cpu1.icache.replacements                     0                       # number of replacements (Count)
system.cpu1.icache.power_state.pwrStateResidencyTicks::UNDEFINED  50500000000                       # Cumulative time (in ticks) in various power states (Tick)
system.cpu1.icache.tags.tagsInUse                   0                       # Average ticks per tags in use ((Tick/Count))
system.cpu1.icache.tags.totalRefs                   0                       # Total number of references to valid blocks. (Count)
system.cpu1.icache.tags.sampledRefs                 0                       # Sample count of references to valid blocks. (Count)
system.cpu1.icache.tags.avgRefs                   nan                       # Average number of references to valid blocks. ((Count/Count))
system.cpu1.icache.tags.warmupTick                  0                       # The tick when the warmup percentage was hit. (Tick)
system.cpu1.icache.tags.tagAccesses                 0                       # Number of tag accesses (Count)
system.cpu1.icache.tags.dataAccesses                0                       # Number of data accesses (Count)
system.cpu1.icache.tags.power_state.pwrStateResidencyTicks::UNDEFINED  50500000000                       # Cumulative time (in ticks) in various power states (Tick)
system.cpu1.interrupts.clk_domain.clock          4000                       # Clock period in ticks (Tick)
system.cpu1.itb_walker_cache.blockedCycles::no_mshrs            0                       # number of cycles access was blocked (Cycle)
system.cpu1.itb_walker_cache.blockedCycles::no_targets            0                       # number of cycles access was blocked (Cycle)
system.cpu1.itb_walker_cache.blockedCauses::no_mshrs            0                       # number of times access was blocked (Count)
system.cpu1.itb_walker_cache.blockedCauses::no_targets            0                       # number of times access was blocked (Count)
system.cpu1.itb_walker_cache.avgBlocked::no_mshrs          nan                       # average number of cycles each access was blocked ((Cycle/Count))
system.cpu1.itb_walker_cache.avgBlocked::no_targets          nan                       # average number of cycles each access was blocked ((Cycle/Count))
system.cpu1.itb_walker_cache.replacements            0                       # number of replacements (Count)
system.cpu1.itb_walker_cache.power_state.pwrStateResidencyTicks::UNDEFINED  50500000000                       # Cumulative time (in ticks) in various power states (Tick)
system.cpu1.itb_walker_cache.tags.tagsInUse            0                       # Average ticks per tags in use ((Tick/Count))
system.cpu1.itb_walker_cache.tags.totalRefs            0                       # Total number of references to valid blocks. (Count)
system.cpu1.itb_walker_cache.tags.sampledRefs            0                       # Sample count of references to valid blocks. (Count)
system.cpu1.itb_walker_cache.tags.avgRefs          nan                       # Average number of references to valid blocks. ((Count/Count))
system.cpu1.itb_walker_cache.tags.warmupTick            0                       # The tick when the warmup percentage was hit. (Tick)
system.cpu1.itb_walker_cache.tags.tagAccesses            0                       # Number of tag accesses (Count)
system.cpu1.itb_walker_cache.tags.dataAccesses            0                       # Number of data accesses (Count)
system.cpu1.itb_walker_cache.tags.power_state.pwrStateResidencyTicks::UNDEFINED  50500000000                       # Cumulative time (in ticks) in various power states (Tick)
system.cpu1.mmu.dtb.rdAccesses                      0                       # TLB accesses on read requests (Count)
system.cpu1.mmu.dtb.wrAccesses                      0                       # TLB accesses on write requests (Count)
system.cpu1.mmu.dtb.rdMisses                        0                       # TLB misses on read requests (Count)
system.cpu1.mmu.dtb.wrMisses                        0                       # TLB misses on write requests (Count)
system.cpu1.mmu.dtb.walker.power_state.pwrStateResidencyTicks::UNDEFINED  50500000000                       # Cumulative time (in ticks) in various power states (Tick)
system.cpu1.mmu.itb.rdAccesses                      0                       # TLB accesses on read requests (Count)
system.cpu1.mmu.itb.wrAccesses                      0                       # TLB accesses on write requests (Count)
system.cpu1.mmu.itb.rdMisses                        0                       # TLB misses on read requests (Count)
system.cpu1.mmu.itb.wrMisses                        0                       # TLB misses on write requests (Count)
system.cpu1.mmu.itb.walker.power_state.pwrStateResidencyTicks::UNDEFINED  50500000000                       # Cumulative time (in ticks) in various power states (Tick)
system.cpu1.power_state.pwrStateResidencyTicks::ON  50500000000                       # Cumulative time (in ticks) in various power states (Tick)
system.cpu1.thread_0.numInsts                       0                       # Number of Instructions committed (Count)
system.cpu1.thread_0.numOps                         0                       # Number of Ops committed (Count)
system.cpu1.thread_0.numMemRefs                     0                       # Number of Memory References (Count)
system.cpu2.numCycles                               0                       # Number of cpu cycles simulated (Cycle)
system.cpu2.numWorkItemsStarted                     0                       # Number of work items this cpu started (Count)
system.cpu2.numWorkItemsCompleted                   0                       # Number of work items this cpu completed (Count)
system.cpu2.branchPred.lookups                      0                       # Number of BP lookups (Count)
system.cpu2.branchPred.condPredicted                0                       # Number of conditional branches predicted (Count)
system.cpu2.branchPred.condIncorrect                0                       # Number of conditional branches incorrect (Count)
system.cpu2.branchPred.BTBLookups                   0                       # Number of BTB lookups (Count)
system.cpu2.branchPred.BTBHits                      0                       # Number of BTB hits (Count)
system.cpu2.branchPred.BTBHitRatio                nan                       # BTB Hit Ratio (Ratio)
system.cpu2.branchPred.RASUsed                      0                       # Number of times the RAS was used to get a target. (Count)
system.cpu2.branchPred.RASIncorrect                 0                       # Number of incorrect RAS predictions. (Count)
system.cpu2.branchPred.indirectLookups              0                       # Number of indirect predictor lookups. (Count)
system.cpu2.branchPred.indirectHits                 0                       # Number of indirect target hits. (Count)
system.cpu2.branchPred.indirectMisses               0                       # Number of indirect misses. (Count)
system.cpu2.branchPred.indirectMispredicted            0                       # Number of mispredicted indirect branches. (Count)
system.cpu2.dcache.blockedCycles::no_mshrs            0                       # number of cycles access was blocked (Cycle)
system.cpu2.dcache.blockedCycles::no_targets            0                       # number of cycles access was blocked (Cycle)
system.cpu2.dcache.blockedCauses::no_mshrs            0                       # number of times access was blocked (Count)
system.cpu2.dcache.blockedCauses::no_targets            0                       # number of times access was blocked (Count)
system.cpu2.dcache.avgBlocked::no_mshrs           nan                       # average number of cycles each access was blocked ((Cycle/Count))
system.cpu2.dcache.avgBlocked::no_targets          nan                       # average number of cycles each access was blocked ((Cycle/Count))
system.cpu2.dcache.replacements                     0                       # number of replacements (Count)
system.cpu2.dcache.power_state.pwrStateResidencyTicks::UNDEFINED  50500000000                       # Cumulative time (in ticks) in various power states (Tick)
system.cpu2.dcache.tags.tagsInUse                   0                       # Average ticks per tags in use ((Tick/Count))
system.cpu2.dcache.tags.totalRefs                   0                       # Total number of references to valid blocks. (Count)
system.cpu2.dcache.tags.sampledRefs                 0                       # Sample count of references to valid blocks. (Count)
system.cpu2.dcache.tags.avgRefs                   nan                       # Average number of references to valid blocks. ((Count/Count))
system.cpu2.dcache.tags.warmupTick                  0                       # The tick when the warmup percentage was hit. (Tick)
system.cpu2.dcache.tags.tagAccesses                 0                       # Number of tag accesses (Count)
system.cpu2.dcache.tags.dataAccesses                0                       # Number of data accesses (Count)
system.cpu2.dcache.tags.power_state.pwrStateResidencyTicks::UNDEFINED  50500000000                       # Cumulative time (in ticks) in various power states (Tick)
system.cpu2.dtb_walker_cache.blockedCycles::no_mshrs            0                       # number of cycles access was blocked (Cycle)
system.cpu2.dtb_walker_cache.blockedCycles::no_targets            0                       # number of cycles access was blocked (Cycle)
system.cpu2.dtb_walker_cache.blockedCauses::no_mshrs            0                       # number of times access was blocked (Count)
system.cpu2.dtb_walker_cache.blockedCauses::no_targets            0                       # number of times access was blocked (Count)
system.cpu2.dtb_walker_cache.avgBlocked::no_mshrs          nan                       # average number of cycles each access was blocked ((Cycle/Count))
system.cpu2.dtb_walker_cache.avgBlocked::no_targets          nan                       # average number of cycles each access was blocked ((Cycle/Count))
system.cpu2.dtb_walker_cache.replacements            0                       # number of replacements (Count)
system.cpu2.dtb_walker_cache.power_state.pwrStateResidencyTicks::UNDEFINED  50500000000                       # Cumulative time (in ticks) in various power states (Tick)
system.cpu2.dtb_walker_cache.tags.tagsInUse            0                       # Average ticks per tags in use ((Tick/Count))
system.cpu2.dtb_walker_cache.tags.totalRefs            0                       # Total number of references to valid blocks. (Count)
system.cpu2.dtb_walker_cache.tags.sampledRefs            0                       # Sample count of references to valid blocks. (Count)
system.cpu2.dtb_walker_cache.tags.avgRefs          nan                       # Average number of references to valid blocks. ((Count/Count))
system.cpu2.dtb_walker_cache.tags.warmupTick            0                       # The tick when the warmup percentage was hit. (Tick)
system.cpu2.dtb_walker_cache.tags.tagAccesses            0                       # Number of tag accesses (Count)
system.cpu2.dtb_walker_cache.tags.dataAccesses            0                       # Number of data accesses (Count)
system.cpu2.dtb_walker_cache.tags.power_state.pwrStateResidencyTicks::UNDEFINED  50500000000                       # Cumulative time (in ticks) in various power states (Tick)
system.cpu2.exec_context.thread_0.numInsts            0                       # Number of instructions committed (Count)
system.cpu2.exec_context.thread_0.numOps            0                       # Number of ops (including micro ops) committed (Count)
system.cpu2.exec_context.thread_0.numIntAluAccesses            0                       # Number of integer alu accesses (Count)
system.cpu2.exec_context.thread_0.numFpAluAccesses            0                       # Number of float alu accesses (Count)
system.cpu2.exec_context.thread_0.numVecAluAccesses            0                       # Number of vector alu accesses (Count)
system.cpu2.exec_context.thread_0.numCallsReturns            0                       # Number of times a function call or return occured (Count)
system.cpu2.exec_context.thread_0.numCondCtrlInsts            0                       # Number of instructions that are conditional controls (Count)
system.cpu2.exec_context.thread_0.numIntInsts            0                       # Number of integer instructions (Count)
system.cpu2.exec_context.thread_0.numFpInsts            0                       # Number of float instructions (Count)
system.cpu2.exec_context.thread_0.numVecInsts            0                       # Number of vector instructions (Count)
system.cpu2.exec_context.thread_0.numIntRegReads            0                       # Number of times the integer registers were read (Count)
system.cpu2.exec_context.thread_0.numIntRegWrites            0                       # Number of times the integer registers were written (Count)
system.cpu2.exec_context.thread_0.numFpRegReads            0                       # Number of times the floating registers were read (Count)
system.cpu2.exec_context.thread_0.numFpRegWrites            0                       # Number of times the floating registers were written (Count)
system.cpu2.exec_context.thread_0.numVecRegReads            0                       # Number of times the vector registers were read (Count)
system.cpu2.exec_context.thread_0.numVecRegWrites            0                       # Number of times the vector registers were written (Count)
system.cpu2.exec_context.thread_0.numVecPredRegReads            0                       # Number of times the predicate registers were read (Count)
system.cpu2.exec_context.thread_0.numVecPredRegWrites            0                       # Number of times the predicate registers were written (Count)
system.cpu2.exec_context.thread_0.numMemRefs            0                       # Number of memory refs (Count)
system.cpu2.exec_context.thread_0.numLoadInsts            0                       # Number of load instructions (Count)
system.cpu2.exec_context.thread_0.numStoreInsts            0                       # Number of store instructions (Count)
system.cpu2.exec_context.thread_0.numIdleCycles            0                       # Number of idle cycles (Cycle)
system.cpu2.exec_context.thread_0.numBusyCycles            0                       # Number of busy cycles (Cycle)
system.cpu2.exec_context.thread_0.notIdleFraction            0                       # Percentage of non-idle cycles (Ratio)
system.cpu2.exec_context.thread_0.idleFraction            1                       # Percentage of idle cycles (Ratio)
system.cpu2.exec_context.thread_0.statExecutedInstType::No_OpClass            0                       # Class of executed instruction. (Count)
system.cpu2.exec_context.thread_0.statExecutedInstType::IntAlu            0                       # Class of executed instruction. (Count)
system.cpu2.exec_context.thread_0.statExecutedInstType::IntMult            0                       # Class of executed instruction. (Count)
system.cpu2.exec_context.thread_0.statExecutedInstType::IntDiv            0                       # Class of executed instruction. (Count)
system.cpu2.exec_context.thread_0.statExecutedInstType::FloatAdd            0                       # Class of executed instruction. (Count)
system.cpu2.exec_context.thread_0.statExecutedInstType::FloatCmp            0                       # Class of executed instruction. (Count)
system.cpu2.exec_context.thread_0.statExecutedInstType::FloatCvt            0                       # Class of executed instruction. (Count)
system.cpu2.exec_context.thread_0.statExecutedInstType::FloatMult            0                       # Class of executed instruction. (Count)
system.cpu2.exec_context.thread_0.statExecutedInstType::FloatMultAcc            0                       # Class of executed instruction. (Count)
system.cpu2.exec_context.thread_0.statExecutedInstType::FloatDiv            0                       # Class of executed instruction. (Count)
system.cpu2.exec_context.thread_0.statExecutedInstType::FloatMisc            0                       # Class of executed instruction. (Count)
system.cpu2.exec_context.thread_0.statExecutedInstType::FloatSqrt            0                       # Class of executed instruction. (Count)
system.cpu2.exec_context.thread_0.statExecutedInstType::SimdAdd            0                       # Class of executed instruction. (Count)
system.cpu2.exec_context.thread_0.statExecutedInstType::SimdAddAcc            0                       # Class of executed instruction. (Count)
system.cpu2.exec_context.thread_0.statExecutedInstType::SimdAlu            0                       # Class of executed instruction. (Count)
system.cpu2.exec_context.thread_0.statExecutedInstType::SimdCmp            0                       # Class of executed instruction. (Count)
system.cpu2.exec_context.thread_0.statExecutedInstType::SimdCvt            0                       # Class of executed instruction. (Count)
system.cpu2.exec_context.thread_0.statExecutedInstType::SimdMisc            0                       # Class of executed instruction. (Count)
system.cpu2.exec_context.thread_0.statExecutedInstType::SimdMult            0                       # Class of executed instruction. (Count)
system.cpu2.exec_context.thread_0.statExecutedInstType::SimdMultAcc            0                       # Class of executed instruction. (Count)
system.cpu2.exec_context.thread_0.statExecutedInstType::SimdShift            0                       # Class of executed instruction. (Count)
system.cpu2.exec_context.thread_0.statExecutedInstType::SimdShiftAcc            0                       # Class of executed instruction. (Count)
system.cpu2.exec_context.thread_0.statExecutedInstType::SimdDiv            0                       # Class of executed instruction. (Count)
system.cpu2.exec_context.thread_0.statExecutedInstType::SimdSqrt            0                       # Class of executed instruction. (Count)
system.cpu2.exec_context.thread_0.statExecutedInstType::SimdFloatAdd            0                       # Class of executed instruction. (Count)
system.cpu2.exec_context.thread_0.statExecutedInstType::SimdFloatAlu            0                       # Class of executed instruction. (Count)
system.cpu2.exec_context.thread_0.statExecutedInstType::SimdFloatCmp            0                       # Class of executed instruction. (Count)
system.cpu2.exec_context.thread_0.statExecutedInstType::SimdFloatCvt            0                       # Class of executed instruction. (Count)
system.cpu2.exec_context.thread_0.statExecutedInstType::SimdFloatDiv            0                       # Class of executed instruction. (Count)
system.cpu2.exec_context.thread_0.statExecutedInstType::SimdFloatMisc            0                       # Class of executed instruction. (Count)
system.cpu2.exec_context.thread_0.statExecutedInstType::SimdFloatMult            0                       # Class of executed instruction. (Count)
system.cpu2.exec_context.thread_0.statExecutedInstType::SimdFloatMultAcc            0                       # Class of executed instruction. (Count)
system.cpu2.exec_context.thread_0.statExecutedInstType::SimdFloatSqrt            0                       # Class of executed instruction. (Count)
system.cpu2.exec_context.thread_0.statExecutedInstType::SimdReduceAdd            0                       # Class of executed instruction. (Count)
system.cpu2.exec_context.thread_0.statExecutedInstType::SimdReduceAlu            0                       # Class of executed instruction. (Count)
system.cpu2.exec_context.thread_0.statExecutedInstType::SimdReduceCmp            0                       # Class of executed instruction. (Count)
system.cpu2.exec_context.thread_0.statExecutedInstType::SimdFloatReduceAdd            0                       # Class of executed instruction. (Count)
system.cpu2.exec_context.thread_0.statExecutedInstType::SimdFloatReduceCmp            0                       # Class of executed instruction. (Count)
system.cpu2.exec_context.thread_0.statExecutedInstType::SimdAes            0                       # Class of executed instruction. (Count)
system.cpu2.exec_context.thread_0.statExecutedInstType::SimdAesMix            0                       # Class of executed instruction. (Count)
system.cpu2.exec_context.thread_0.statExecutedInstType::SimdSha1Hash            0                       # Class of executed instruction. (Count)
system.cpu2.exec_context.thread_0.statExecutedInstType::SimdSha1Hash2            0                       # Class of executed instruction. (Count)
system.cpu2.exec_context.thread_0.statExecutedInstType::SimdSha256Hash            0                       # Class of executed instruction. (Count)
system.cpu2.exec_context.thread_0.statExecutedInstType::SimdSha256Hash2            0                       # Class of executed instruction. (Count)
system.cpu2.exec_context.thread_0.statExecutedInstType::SimdShaSigma2            0                       # Class of executed instruction. (Count)
system.cpu2.exec_context.thread_0.statExecutedInstType::SimdShaSigma3            0                       # Class of executed instruction. (Count)
system.cpu2.exec_context.thread_0.statExecutedInstType::SimdPredAlu            0                       # Class of executed instruction. (Count)
system.cpu2.exec_context.thread_0.statExecutedInstType::MemRead            0                       # Class of executed instruction. (Count)
system.cpu2.exec_context.thread_0.statExecutedInstType::MemWrite            0                       # Class of executed instruction. (Count)
system.cpu2.exec_context.thread_0.statExecutedInstType::FloatMemRead            0                       # Class of executed instruction. (Count)
system.cpu2.exec_context.thread_0.statExecutedInstType::FloatMemWrite            0                       # Class of executed instruction. (Count)
system.cpu2.exec_context.thread_0.statExecutedInstType::IprAccess            0                       # Class of executed instruction. (Count)
system.cpu2.exec_context.thread_0.statExecutedInstType::InstPrefetch            0                       # Class of executed instruction. (Count)
system.cpu2.exec_context.thread_0.statExecutedInstType::total            0                       # Class of executed instruction. (Count)
system.cpu2.icache.blockedCycles::no_mshrs            0                       # number of cycles access was blocked (Cycle)
system.cpu2.icache.blockedCycles::no_targets            0                       # number of cycles access was blocked (Cycle)
system.cpu2.icache.blockedCauses::no_mshrs            0                       # number of times access was blocked (Count)
system.cpu2.icache.blockedCauses::no_targets            0                       # number of times access was blocked (Count)
system.cpu2.icache.avgBlocked::no_mshrs           nan                       # average number of cycles each access was blocked ((Cycle/Count))
system.cpu2.icache.avgBlocked::no_targets          nan                       # average number of cycles each access was blocked ((Cycle/Count))
system.cpu2.icache.replacements                     0                       # number of replacements (Count)
system.cpu2.icache.power_state.pwrStateResidencyTicks::UNDEFINED  50500000000                       # Cumulative time (in ticks) in various power states (Tick)
system.cpu2.icache.tags.tagsInUse                   0                       # Average ticks per tags in use ((Tick/Count))
system.cpu2.icache.tags.totalRefs                   0                       # Total number of references to valid blocks. (Count)
system.cpu2.icache.tags.sampledRefs                 0                       # Sample count of references to valid blocks. (Count)
system.cpu2.icache.tags.avgRefs                   nan                       # Average number of references to valid blocks. ((Count/Count))
system.cpu2.icache.tags.warmupTick                  0                       # The tick when the warmup percentage was hit. (Tick)
system.cpu2.icache.tags.tagAccesses                 0                       # Number of tag accesses (Count)
system.cpu2.icache.tags.dataAccesses                0                       # Number of data accesses (Count)
system.cpu2.icache.tags.power_state.pwrStateResidencyTicks::UNDEFINED  50500000000                       # Cumulative time (in ticks) in various power states (Tick)
system.cpu2.interrupts.clk_domain.clock          4000                       # Clock period in ticks (Tick)
system.cpu2.itb_walker_cache.blockedCycles::no_mshrs            0                       # number of cycles access was blocked (Cycle)
system.cpu2.itb_walker_cache.blockedCycles::no_targets            0                       # number of cycles access was blocked (Cycle)
system.cpu2.itb_walker_cache.blockedCauses::no_mshrs            0                       # number of times access was blocked (Count)
system.cpu2.itb_walker_cache.blockedCauses::no_targets            0                       # number of times access was blocked (Count)
system.cpu2.itb_walker_cache.avgBlocked::no_mshrs          nan                       # average number of cycles each access was blocked ((Cycle/Count))
system.cpu2.itb_walker_cache.avgBlocked::no_targets          nan                       # average number of cycles each access was blocked ((Cycle/Count))
system.cpu2.itb_walker_cache.replacements            0                       # number of replacements (Count)
system.cpu2.itb_walker_cache.power_state.pwrStateResidencyTicks::UNDEFINED  50500000000                       # Cumulative time (in ticks) in various power states (Tick)
system.cpu2.itb_walker_cache.tags.tagsInUse            0                       # Average ticks per tags in use ((Tick/Count))
system.cpu2.itb_walker_cache.tags.totalRefs            0                       # Total number of references to valid blocks. (Count)
system.cpu2.itb_walker_cache.tags.sampledRefs            0                       # Sample count of references to valid blocks. (Count)
system.cpu2.itb_walker_cache.tags.avgRefs          nan                       # Average number of references to valid blocks. ((Count/Count))
system.cpu2.itb_walker_cache.tags.warmupTick            0                       # The tick when the warmup percentage was hit. (Tick)
system.cpu2.itb_walker_cache.tags.tagAccesses            0                       # Number of tag accesses (Count)
system.cpu2.itb_walker_cache.tags.dataAccesses            0                       # Number of data accesses (Count)
system.cpu2.itb_walker_cache.tags.power_state.pwrStateResidencyTicks::UNDEFINED  50500000000                       # Cumulative time (in ticks) in various power states (Tick)
system.cpu2.mmu.dtb.rdAccesses                      0                       # TLB accesses on read requests (Count)
system.cpu2.mmu.dtb.wrAccesses                      0                       # TLB accesses on write requests (Count)
[...]
system.mem_ctrls.dram.numWrites::total         148655                       # Number of write requests responded to by this memory (Count)
system.mem_ctrls.dram.bwRead::cpu0.inst       1652594                       # Total read bandwidth from this memory ((Byte/Second))
system.mem_ctrls.dram.bwRead::cpu0.data     205140911                       # Total read bandwidth from this memory ((Byte/Second))
system.mem_ctrls.dram.bwRead::total         206793505                       # Total read bandwidth from this memory ((Byte/Second))
system.mem_ctrls.dram.bwInstRead::cpu0.inst      1652594                       # Instruction read bandwidth from this memory ((Byte/Second))
system.mem_ctrls.dram.bwInstRead::total       1652594                       # Instruction read bandwidth from this memory ((Byte/Second))
system.mem_ctrls.dram.bwWrite::writebacks    188394455                       # Write bandwidth from this memory ((Byte/Second))
system.mem_ctrls.dram.bwWrite::total        188394455                       # Write bandwidth from this memory ((Byte/Second))
system.mem_ctrls.dram.bwTotal::writebacks    188394455                       # Total bandwidth to/from this memory ((Byte/Second))
system.mem_ctrls.dram.bwTotal::cpu0.inst      1652594                       # Total bandwidth to/from this memory ((Byte/Second))
system.mem_ctrls.dram.bwTotal::cpu0.data    205140911                       # Total bandwidth to/from this memory ((Byte/Second))
system.mem_ctrls.dram.bwTotal::total        395187960                       # Total bandwidth to/from this memory ((Byte/Second))
system.mem_ctrls.dram.readBursts                    0                       # Number of DRAM read bursts (Count)
system.mem_ctrls.dram.writeBursts                   0                       # Number of DRAM write bursts (Count)
system.mem_ctrls.dram.perBankRdBursts::0            0                       # Per bank write bursts (Count)
system.mem_ctrls.dram.perBankRdBursts::1            0                       # Per bank write bursts (Count)
system.mem_ctrls.dram.perBankRdBursts::2            0                       # Per bank write bursts (Count)
system.mem_ctrls.dram.perBankRdBursts::3            0                       # Per bank write bursts (Count)
system.mem_ctrls.dram.perBankRdBursts::4            0                       # Per bank write bursts (Count)
system.mem_ctrls.dram.perBankRdBursts::5            0                       # Per bank write bursts (Count)
system.mem_ctrls.dram.perBankRdBursts::6            0                       # Per bank write bursts (Count)
system.mem_ctrls.dram.perBankRdBursts::7            0                       # Per bank write bursts (Count)
system.mem_ctrls.dram.perBankRdBursts::8            0                       # Per bank write bursts (Count)
system.mem_ctrls.dram.perBankRdBursts::9            0                       # Per bank write bursts (Count)
system.mem_ctrls.dram.perBankRdBursts::10            0                       # Per bank write bursts (Count)
system.mem_ctrls.dram.perBankRdBursts::11            0                       # Per bank write bursts (Count)
system.mem_ctrls.dram.perBankRdBursts::12            0                       # Per bank write bursts (Count)
system.mem_ctrls.dram.perBankRdBursts::13            0                       # Per bank write bursts (Count)
system.mem_ctrls.dram.perBankRdBursts::14            0                       # Per bank write bursts (Count)
system.mem_ctrls.dram.perBankRdBursts::15            0                       # Per bank write bursts (Count)
system.mem_ctrls.dram.perBankWrBursts::0            0                       # Per bank write bursts (Count)
system.mem_ctrls.dram.perBankWrBursts::1            0                       # Per bank write bursts (Count)
system.mem_ctrls.dram.perBankWrBursts::2            0                       # Per bank write bursts (Count)
system.mem_ctrls.dram.perBankWrBursts::3            0                       # Per bank write bursts (Count)
system.mem_ctrls.dram.perBankWrBursts::4            0                       # Per bank write bursts (Count)
system.mem_ctrls.dram.perBankWrBursts::5            0                       # Per bank write bursts (Count)
system.mem_ctrls.dram.perBankWrBursts::6            0                       # Per bank write bursts (Count)
system.mem_ctrls.dram.perBankWrBursts::7            0                       # Per bank write bursts (Count)
system.mem_ctrls.dram.perBankWrBursts::8            0                       # Per bank write bursts (Count)
system.mem_ctrls.dram.perBankWrBursts::9            0                       # Per bank write bursts (Count)
system.mem_ctrls.dram.perBankWrBursts::10            0                       # Per bank write bursts (Count)
system.mem_ctrls.dram.perBankWrBursts::11            0                       # Per bank write bursts (Count)
system.mem_ctrls.dram.perBankWrBursts::12            0                       # Per bank write bursts (Count)
system.mem_ctrls.dram.perBankWrBursts::13            0                       # Per bank write bursts (Count)
system.mem_ctrls.dram.perBankWrBursts::14            0                       # Per bank write bursts (Count)
system.mem_ctrls.dram.perBankWrBursts::15            0                       # Per bank write bursts (Count)
system.mem_ctrls.dram.totQLat                       0                       # Total ticks spent queuing (Tick)
system.mem_ctrls.dram.totBusLat                     0                       # Total ticks spent in databus transfers (Tick)
system.mem_ctrls.dram.totMemAccLat                  0                       # Total ticks spent from burst creation until serviced by the DRAM (Tick)
system.mem_ctrls.dram.avgQLat                     nan                       # Average queueing delay per DRAM burst ((Tick/Count))
system.mem_ctrls.dram.avgBusLat                   nan                       # Average bus latency per DRAM burst ((Tick/Count))
system.mem_ctrls.dram.avgMemAccLat                nan                       # Average memory access latency per DRAM burst ((Tick/Count))
system.mem_ctrls.dram.readRowHits                   0                       # Number of row buffer hits during reads (Count)
system.mem_ctrls.dram.writeRowHits                  0                       # Number of row buffer hits during writes (Count)
system.mem_ctrls.dram.readRowHitRate              nan                       # Row buffer hit rate for reads (Ratio)
system.mem_ctrls.dram.writeRowHitRate             nan                       # Row buffer hit rate for writes (Ratio)
system.mem_ctrls.dram.bytesRead                     0                       # Total number of bytes read from DRAM (Byte)
system.mem_ctrls.dram.bytesWritten                  0                       # Total number of bytes written to DRAM (Byte)
system.mem_ctrls.dram.avgRdBW                       0                       # Average DRAM read bandwidth in MiBytes/s ((Byte/Second))
system.mem_ctrls.dram.avgWrBW                       0                       # Average DRAM write bandwidth in MiBytes/s ((Byte/Second))
system.mem_ctrls.dram.peakBW                 12800.00                       # Theoretical peak bandwidth in MiByte/s ((Byte/Second))
system.mem_ctrls.dram.busUtil                    0.00                       # Data bus utilization in percentage (Ratio)
system.mem_ctrls.dram.busUtilRead                0.00                       # Data bus utilization in percentage for reads (Ratio)
system.mem_ctrls.dram.busUtilWrite               0.00                       # Data bus utilization in percentage for writes (Ratio)
system.mem_ctrls.dram.pageHitRate                 nan                       # Row buffer hit rate, read and write combined (Ratio)
system.mem_ctrls.dram.power_state.pwrStateResidencyTicks::UNDEFINED  50500000000                       # Cumulative time (in ticks) in various power states (Tick)
system.mem_ctrls.dram.rank0.actEnergy               0                       # Energy for activate commands per rank (pJ) (Joule)
system.mem_ctrls.dram.rank0.preEnergy               0                       # Energy for precharge commands per rank (pJ) (Joule)
system.mem_ctrls.dram.rank0.readEnergy              0                       # Energy for read commands per rank (pJ) (Joule)
system.mem_ctrls.dram.rank0.writeEnergy             0                       # Energy for write commands per rank (pJ) (Joule)
system.mem_ctrls.dram.rank0.refreshEnergy            0                       # Energy for refresh commands per rank (pJ) (Joule)
system.mem_ctrls.dram.rank0.actBackEnergy            0                       # Energy for active background per rank (pJ) (Joule)
system.mem_ctrls.dram.rank0.preBackEnergy  19392000000                       # Energy for precharge background per rank (pJ) (Joule)
system.mem_ctrls.dram.rank0.actPowerDownEnergy            0                       # Energy for active power-down per rank (pJ) (Joule)
system.mem_ctrls.dram.rank0.prePowerDownEnergy            0                       # Energy for precharge power-down per rank (pJ) (Joule)
system.mem_ctrls.dram.rank0.selfRefreshEnergy            0                       # Energy for self refresh per rank (pJ) (Joule)
system.mem_ctrls.dram.rank0.totalEnergy   19392000000                       # Total energy per rank (pJ) (Joule)
system.mem_ctrls.dram.rank0.averagePower          384                       # Core power per rank (mW) (Watt)
system.mem_ctrls.dram.rank0.totalIdleTime            0                       # Total Idle time Per DRAM Rank (Tick)
system.mem_ctrls.dram.rank0.pwrStateTime::IDLE  50500000000                       # Time in different power states (Tick)
system.mem_ctrls.dram.rank0.pwrStateTime::REF            0                       # Time in different power states (Tick)
system.mem_ctrls.dram.rank0.pwrStateTime::SREF            0                       # Time in different power states (Tick)
system.mem_ctrls.dram.rank0.pwrStateTime::PRE_PDN            0                       # Time in different power states (Tick)
system.mem_ctrls.dram.rank0.pwrStateTime::ACT            0                       # Time in different power states (Tick)
system.mem_ctrls.dram.rank0.pwrStateTime::ACT_PDN            0                       # Time in different power states (Tick)
system.mem_ctrls.dram.rank1.actEnergy               0                       # Energy for activate commands per rank (pJ) (Joule)
system.mem_ctrls.dram.rank1.preEnergy               0                       # Energy for precharge commands per rank (pJ) (Joule)
system.mem_ctrls.dram.rank1.readEnergy              0                       # Energy for read commands per rank (pJ) (Joule)
system.mem_ctrls.dram.rank1.writeEnergy             0                       # Energy for write commands per rank (pJ) (Joule)
system.mem_ctrls.dram.rank1.refreshEnergy            0                       # Energy for refresh commands per rank (pJ) (Joule)
system.mem_ctrls.dram.rank1.actBackEnergy            0                       # Energy for active background per rank (pJ) (Joule)
system.mem_ctrls.dram.rank1.preBackEnergy  19392000000                       # Energy for precharge background per rank (pJ) (Joule)
system.mem_ctrls.dram.rank1.actPowerDownEnergy            0                       # Energy for active power-down per rank (pJ) (Joule)
system.mem_ctrls.dram.rank1.prePowerDownEnergy            0                       # Energy for precharge power-down per rank (pJ) (Joule)
system.mem_ctrls.dram.rank1.selfRefreshEnergy            0                       # Energy for self refresh per rank (pJ) (Joule)
system.mem_ctrls.dram.rank1.totalEnergy   19392000000                       # Total energy per rank (pJ) (Joule)
system.mem_ctrls.dram.rank1.averagePower          384                       # Core power per rank (mW) (Watt)
system.mem_ctrls.dram.rank1.totalIdleTime            0                       # Total Idle time Per DRAM Rank (Tick)
system.mem_ctrls.dram.rank1.pwrStateTime::IDLE  50500000000                       # Time in different power states (Tick)
system.mem_ctrls.dram.rank1.pwrStateTime::REF            0                       # Time in different power states (Tick)
system.mem_ctrls.dram.rank1.pwrStateTime::SREF            0                       # Time in different power states (Tick)
system.mem_ctrls.dram.rank1.pwrStateTime::PRE_PDN            0                       # Time in different power states (Tick)
system.mem_ctrls.dram.rank1.pwrStateTime::ACT            0                       # Time in different power states (Tick)
system.mem_ctrls.dram.rank1.pwrStateTime::ACT_PDN            0                       # Time in different power states (Tick)
system.mem_ctrls.power_state.pwrStateResidencyTicks::UNDEFINED  50500000000                       # Cumulative time (in ticks) in various power states (Tick)
system.membus.transDist::ReadResp               42188                       # Transaction distribution (Count)
system.membus.transDist::WritebackDirty        148655                       # Transaction distribution (Count)
system.membus.transDist::WritebackClean           802                       # Transaction distribution (Count)
system.membus.transDist::CleanEvict             12190                       # Transaction distribution (Count)
system.membus.transDist::ReadExReq             120985                       # Transaction distribution (Count)
system.membus.transDist::ReadExResp            120985                       # Transaction distribution (Count)
system.membus.transDist::ReadCleanReq            1304                       # Transaction distribution (Count)
system.membus.transDist::ReadSharedReq          40884                       # Transaction distribution (Count)
system.membus.pktCount_system.cpu0.icache.mem_side_port::system.mem_ctrls.port         3410                       # Packet count per connected requestor and responder (Count)
system.membus.pktCount_system.cpu0.icache.mem_side_port::total         3410                       # Packet count per connected requestor and responder (Count)
system.membus.pktCount_system.cpu0.dcache.mem_side_port::system.mem_ctrls.port       484583                       # Packet count per connected requestor and responder (Count)
system.membus.pktCount_system.cpu0.dcache.mem_side_port::total       484583                       # Packet count per connected requestor and responder (Count)
system.membus.pktCount::total                  487993                       # Packet count per connected requestor and responder (Count)
system.membus.pktSize_system.cpu0.icache.mem_side_port::system.mem_ctrls.port       134784                       # Cumulative packet size per connected requestor and responder (Byte)
system.membus.pktSize_system.cpu0.icache.mem_side_port::total       134784                       # Cumulative packet size per connected requestor and responder (Byte)
system.membus.pktSize_system.cpu0.dcache.mem_side_port::system.mem_ctrls.port     19873536                       # Cumulative packet size per connected requestor and responder (Byte)
system.membus.pktSize_system.cpu0.dcache.mem_side_port::total     19873536                       # Cumulative packet size per connected requestor and responder (Byte)
system.membus.pktSize::total                 20008320                       # Cumulative packet size per connected requestor and responder (Byte)
system.membus.snoops                                0                       # Total snoops (Count)
system.membus.snoopTraffic                          0                       # Total snoop traffic (Byte)
system.membus.snoopFanout::samples             163173                       # Request fanout histogram (Count)
system.membus.snoopFanout::mean                     0                       # Request fanout histogram (Count)
system.membus.snoopFanout::stdev                    0                       # Request fanout histogram (Count)
system.membus.snoopFanout::underflows               0      0.00%      0.00% # Request fanout histogram (Count)
system.membus.snoopFanout::0                   163173    100.00%    100.00% # Request fanout histogram (Count)
system.membus.snoopFanout::1                        0      0.00%    100.00% # Request fanout histogram (Count)
system.membus.snoopFanout::2                        0      0.00%    100.00% # Request fanout histogram (Count)
system.membus.snoopFanout::3                        0      0.00%    100.00% # Request fanout histogram (Count)
system.membus.snoopFanout::4                        0      0.00%    100.00% # Request fanout histogram (Count)
system.membus.snoopFanout::5                        0      0.00%    100.00% # Request fanout histogram (Count)
system.membus.snoopFanout::6                        0      0.00%    100.00% # Request fanout histogram (Count)
system.membus.snoopFanout::7                        0      0.00%    100.00% # Request fanout histogram (Count)
system.membus.snoopFanout::8                        0      0.00%    100.00% # Request fanout histogram (Count)
system.membus.snoopFanout::9                        0      0.00%    100.00% # Request fanout histogram (Count)
system.membus.snoopFanout::10                       0      0.00%    100.00% # Request fanout histogram (Count)
system.membus.snoopFanout::11                       0      0.00%    100.00% # Request fanout histogram (Count)
system.membus.snoopFanout::12                       0      0.00%    100.00% # Request fanout histogram (Count)
system.membus.snoopFanout::13                       0      0.00%    100.00% # Request fanout histogram (Count)
system.membus.snoopFanout::14                       0      0.00%    100.00% # Request fanout histogram (Count)
system.membus.snoopFanout::15                       0      0.00%    100.00% # Request fanout histogram (Count)
system.membus.snoopFanout::16                       0      0.00%    100.00% # Request fanout histogram (Count)
system.membus.snoopFanout::overflows                0      0.00%    100.00% # Request fanout histogram (Count)
system.membus.snoopFanout::min_value                0                       # Request fanout histogram (Count)
system.membus.snoopFanout::max_value                0                       # Request fanout histogram (Count)
system.membus.snoopFanout::total               163173                       # Request fanout histogram (Count)
system.membus.power_state.pwrStateResidencyTicks::UNDEFINED  50500000000                       # Cumulative time (in ticks) in various power states (Tick)
system.membus.snoop_filter.totRequests         324820                       # Total number of requests made to the snoop filter. (Count)
system.membus.snoop_filter.hitSingleRequests       161647                       # Number of requests hitting in the snoop filter with a single holder of the requested data. (Count)
system.membus.snoop_filter.hitMultiRequests            0                       # Number of requests hitting in the snoop filter with multiple (>1) holders of the requested data. (Count)
system.membus.snoop_filter.totSnoops                0                       # Total number of snoops made to the snoop filter. (Count)
system.membus.snoop_filter.hitSingleSnoops            0                       # Number of snoops hitting in the snoop filter with a single holder of the requested data. (Count)
system.membus.snoop_filter.hitMultiSnoops            0                       # Number of snoops hitting in the snoop filter with multiple (>1) holders of the requested data. (Count)
system.voltage_domain.voltage                       1                       # Voltage in Volts (Volt)
system.workload.inst.arm                            0                       # number of arm instructions executed (Count)
system.workload.inst.quiesce                        0                       # number of quiesce instructions executed (Count)

---------- End Simulation Statistics   ----------
