
---------- Begin Simulation Statistics ----------
simSeconds                                   0.191166                       # Number of seconds simulated (Second)
simTicks                                 191166443000                       # Number of ticks simulated (Tick)
finalTick                                617146862500                       # Number of ticks from beginning of simulation (restored from checkpoints and never reset) (Tick)
simFreq                                  1000000000000                       # The number of ticks per simulated second ((Tick/Second))
hostSeconds                                   7694.31                       # Real time elapsed on the host (Second)
hostTickRate                                 24845158                       # The number of ticks simulated per host second (ticks/s) ((Tick/Second))
hostMemory                                    9323736                       # Number of bytes of host memory used (Byte)
simInsts                                   2270718773                       # Number of instructions simulated (Count)
simOps                                     2310729482                       # Number of ops (including micro ops) simulated (Count)
hostInstRate                                   295116                       # Simulator instruction rate (inst/s) ((Count/Second))
hostOpRate                                     300317                       # Simulator op (including micro ops) rate (op/s) ((Count/Second))
testsys.clk_domain.clock                         1000                       # Clock period in ticks (Tick)
testsys.cpu_cluster.clk_domain.clock              250                       # Clock period in ticks (Tick)
testsys.cpu_cluster.cpus0.numCycles         763759903                       # Number of cpu cycles simulated (Cycle)
testsys.cpu_cluster.cpus0.numWorkItemsStarted            0                       # Number of work items this cpu started (Count)
testsys.cpu_cluster.cpus0.numWorkItemsCompleted            0                       # Number of work items this cpu completed (Count)
testsys.cpu_cluster.cpus0.instsAdded       2462458041                       # Number of instructions added to the IQ (excludes non-spec) (Count)
testsys.cpu_cluster.cpus0.nonSpecInstsAdded        56709                       # Number of non-speculative instructions added to the IQ (Count)
testsys.cpu_cluster.cpus0.instsIssued      2220029659                       # Number of instructions issued (Count)
testsys.cpu_cluster.cpus0.squashedInstsIssued      6895873                       # Number of squashed instructions issued (Count)
testsys.cpu_cluster.cpus0.squashedInstsExamined    639812776                       # Number of squashed instructions iterated over during squash; mainly for profiling (Count)
testsys.cpu_cluster.cpus0.squashedOperandsExamined    634901682                       # Number of squashed operands that are examined and possibly removed from graph (Count)
testsys.cpu_cluster.cpus0.squashedNonSpecRemoved         4946                       # Number of squashed non-spec instructions that were removed (Count)
testsys.cpu_cluster.cpus0.numIssuedDist::samples    761037897                       # Number of insts issued each cycle (Count)
testsys.cpu_cluster.cpus0.numIssuedDist::mean     2.917108                       # Number of insts issued each cycle (Count)
testsys.cpu_cluster.cpus0.numIssuedDist::stdev     2.367741                       # Number of insts issued each cycle (Count)
testsys.cpu_cluster.cpus0.numIssuedDist::underflows            0      0.00%      0.00% # Number of insts issued each cycle (Count)
testsys.cpu_cluster.cpus0.numIssuedDist::0    208718822     27.43%     27.43% # Number of insts issued each cycle (Count)
testsys.cpu_cluster.cpus0.numIssuedDist::1     64063281      8.42%     35.84% # Number of insts issued each cycle (Count)
testsys.cpu_cluster.cpus0.numIssuedDist::2     68833000      9.04%     44.89% # Number of insts issued each cycle (Count)
testsys.cpu_cluster.cpus0.numIssuedDist::3     71227594      9.36%     54.25% # Number of insts issued each cycle (Count)
testsys.cpu_cluster.cpus0.numIssuedDist::4    115513235     15.18%     69.43% # Number of insts issued each cycle (Count)
testsys.cpu_cluster.cpus0.numIssuedDist::5    102261233     13.44%     82.86% # Number of insts issued each cycle (Count)
testsys.cpu_cluster.cpus0.numIssuedDist::6     96046328     12.62%     95.48% # Number of insts issued each cycle (Count)
testsys.cpu_cluster.cpus0.numIssuedDist::7     20014709      2.63%     98.11% # Number of insts issued each cycle (Count)
testsys.cpu_cluster.cpus0.numIssuedDist::8     14359695      1.89%    100.00% # Number of insts issued each cycle (Count)
testsys.cpu_cluster.cpus0.numIssuedDist::overflows            0      0.00%    100.00% # Number of insts issued each cycle (Count)
testsys.cpu_cluster.cpus0.numIssuedDist::min_value            0                       # Number of insts issued each cycle (Count)
testsys.cpu_cluster.cpus0.numIssuedDist::max_value            8                       # Number of insts issued each cycle (Count)
testsys.cpu_cluster.cpus0.numIssuedDist::total    761037897                       # Number of insts issued each cycle (Count)
testsys.cpu_cluster.cpus0.statFuBusy::No_OpClass            0      0.00%      0.00% # attempts to use FU when none available (Count)
testsys.cpu_cluster.cpus0.statFuBusy::IntAlu     33568910     45.69%     45.69% # attempts to use FU when none available (Count)
testsys.cpu_cluster.cpus0.statFuBusy::IntMult       717429      0.98%     46.66% # attempts to use FU when none available (Count)
testsys.cpu_cluster.cpus0.statFuBusy::IntDiv         5657      0.01%     46.67% # attempts to use FU when none available (Count)
testsys.cpu_cluster.cpus0.statFuBusy::FloatAdd          117      0.00%     46.67% # attempts to use FU when none available (Count)
testsys.cpu_cluster.cpus0.statFuBusy::FloatCmp            0      0.00%     46.67% # attempts to use FU when none available (Count)
testsys.cpu_cluster.cpus0.statFuBusy::FloatCvt            0      0.00%     46.67% # attempts to use FU when none available (Count)
testsys.cpu_cluster.cpus0.statFuBusy::FloatMult       552599      0.75%     47.42% # attempts to use FU when none available (Count)
testsys.cpu_cluster.cpus0.statFuBusy::FloatMultAcc        46076      0.06%     47.49% # attempts to use FU when none available (Count)
testsys.cpu_cluster.cpus0.statFuBusy::FloatDiv       494621      0.67%     48.16% # attempts to use FU when none available (Count)
testsys.cpu_cluster.cpus0.statFuBusy::FloatMisc       647644      0.88%     49.04% # attempts to use FU when none available (Count)
testsys.cpu_cluster.cpus0.statFuBusy::FloatSqrt            0      0.00%     49.04% # attempts to use FU when none available (Count)
testsys.cpu_cluster.cpus0.statFuBusy::SimdAdd            0      0.00%     49.04% # attempts to use FU when none available (Count)
testsys.cpu_cluster.cpus0.statFuBusy::SimdAddAcc            0      0.00%     49.04% # attempts to use FU when none available (Count)
testsys.cpu_cluster.cpus0.statFuBusy::SimdAlu            0      0.00%     49.04% # attempts to use FU when none available (Count)
testsys.cpu_cluster.cpus0.statFuBusy::SimdCmp            0      0.00%     49.04% # attempts to use FU when none available (Count)
testsys.cpu_cluster.cpus0.statFuBusy::SimdCvt            0      0.00%     49.04% # attempts to use FU when none available (Count)
testsys.cpu_cluster.cpus0.statFuBusy::SimdMisc            0      0.00%     49.04% # attempts to use FU when none available (Count)
testsys.cpu_cluster.cpus0.statFuBusy::SimdMult            0      0.00%     49.04% # attempts to use FU when none available (Count)
testsys.cpu_cluster.cpus0.statFuBusy::SimdMultAcc            0      0.00%     49.04% # attempts to use FU when none available (Count)
testsys.cpu_cluster.cpus0.statFuBusy::SimdShift            0      0.00%     49.04% # attempts to use FU when none available (Count)
testsys.cpu_cluster.cpus0.statFuBusy::SimdShiftAcc            0      0.00%     49.04% # attempts to use FU when none available (Count)
testsys.cpu_cluster.cpus0.statFuBusy::SimdDiv            0      0.00%     49.04% # attempts to use FU when none available (Count)
testsys.cpu_cluster.cpus0.statFuBusy::SimdSqrt            0      0.00%     49.04% # attempts to use FU when none available (Count)
testsys.cpu_cluster.cpus0.statFuBusy::SimdFloatAdd            0      0.00%     49.04% # attempts to use FU when none available (Count)
testsys.cpu_cluster.cpus0.statFuBusy::SimdFloatAlu            0      0.00%     49.04% # attempts to use FU when none available (Count)
testsys.cpu_cluster.cpus0.statFuBusy::SimdFloatCmp            0      0.00%     49.04% # attempts to use FU when none available (Count)
testsys.cpu_cluster.cpus0.statFuBusy::SimdFloatCvt            0      0.00%     49.04% # attempts to use FU when none available (Count)
testsys.cpu_cluster.cpus0.statFuBusy::SimdFloatDiv            0      0.00%     49.04% # attempts to use FU when none available (Count)
testsys.cpu_cluster.cpus0.statFuBusy::SimdFloatMisc            0      0.00%     49.04% # attempts to use FU when none available (Count)
testsys.cpu_cluster.cpus0.statFuBusy::SimdFloatMult            0      0.00%     49.04% # attempts to use FU when none available (Count)
testsys.cpu_cluster.cpus0.statFuBusy::SimdFloatMultAcc            0      0.00%     49.04% # attempts to use FU when none available (Count)
testsys.cpu_cluster.cpus0.statFuBusy::SimdFloatSqrt            0      0.00%     49.04% # attempts to use FU when none available (Count)
testsys.cpu_cluster.cpus0.statFuBusy::SimdReduceAdd            0      0.00%     49.04% # attempts to use FU when none available (Count)
testsys.cpu_cluster.cpus0.statFuBusy::SimdReduceAlu            0      0.00%     49.04% # attempts to use FU when none available (Count)
testsys.cpu_cluster.cpus0.statFuBusy::SimdReduceCmp            0      0.00%     49.04% # attempts to use FU when none available (Count)
testsys.cpu_cluster.cpus0.statFuBusy::SimdFloatReduceAdd            0      0.00%     49.04% # attempts to use FU when none available (Count)
testsys.cpu_cluster.cpus0.statFuBusy::SimdFloatReduceCmp            0      0.00%     49.04% # attempts to use FU when none available (Count)
testsys.cpu_cluster.cpus0.statFuBusy::SimdAes            0      0.00%     49.04% # attempts to use FU when none available (Count)
testsys.cpu_cluster.cpus0.statFuBusy::SimdAesMix            0      0.00%     49.04% # attempts to use FU when none available (Count)
testsys.cpu_cluster.cpus0.statFuBusy::SimdSha1Hash            0      0.00%     49.04% # attempts to use FU when none available (Count)
testsys.cpu_cluster.cpus0.statFuBusy::SimdSha1Hash2            0      0.00%     49.04% # attempts to use FU when none available (Count)
testsys.cpu_cluster.cpus0.statFuBusy::SimdSha256Hash            0      0.00%     49.04% # attempts to use FU when none available (Count)
testsys.cpu_cluster.cpus0.statFuBusy::SimdSha256Hash2            0      0.00%     49.04% # attempts to use FU when none available (Count)
testsys.cpu_cluster.cpus0.statFuBusy::SimdShaSigma2            0      0.00%     49.04% # attempts to use FU when none available (Count)
testsys.cpu_cluster.cpus0.statFuBusy::SimdShaSigma3            0      0.00%     49.04% # attempts to use FU when none available (Count)
testsys.cpu_cluster.cpus0.statFuBusy::SimdPredAlu            0      0.00%     49.04% # attempts to use FU when none available (Count)
testsys.cpu_cluster.cpus0.statFuBusy::MemRead     37161146     50.58%     99.62% # attempts to use FU when none available (Count)
testsys.cpu_cluster.cpus0.statFuBusy::MemWrite       281821      0.38%    100.00% # attempts to use FU when none available (Count)
testsys.cpu_cluster.cpus0.statFuBusy::FloatMemRead            0      0.00%    100.00% # attempts to use FU when none available (Count)
testsys.cpu_cluster.cpus0.statFuBusy::FloatMemWrite            0      0.00%    100.00% # attempts to use FU when none available (Count)
testsys.cpu_cluster.cpus0.statFuBusy::IprAccess            0      0.00%    100.00% # attempts to use FU when none available (Count)
testsys.cpu_cluster.cpus0.statFuBusy::InstPrefetch            0      0.00%    100.00% # attempts to use FU when none available (Count)
testsys.cpu_cluster.cpus0.statIssuedInstType_0::No_OpClass         2033      0.00%      0.00% # Number of instructions issued per FU type, per thread (Count)
testsys.cpu_cluster.cpus0.statIssuedInstType_0::IntAlu   1301104400     58.61%     58.61% # Number of instructions issued per FU type, per thread (Count)
testsys.cpu_cluster.cpus0.statIssuedInstType_0::IntMult      2323954      0.10%     58.71% # Number of instructions issued per FU type, per thread (Count)
testsys.cpu_cluster.cpus0.statIssuedInstType_0::IntDiv       215015      0.01%     58.72% # Number of instructions issued per FU type, per thread (Count)
testsys.cpu_cluster.cpus0.statIssuedInstType_0::FloatAdd     55044283      2.48%     61.20% # Number of instructions issued per FU type, per thread (Count)
testsys.cpu_cluster.cpus0.statIssuedInstType_0::FloatCmp     50317206      2.27%     63.47% # Number of instructions issued per FU type, per thread (Count)
testsys.cpu_cluster.cpus0.statIssuedInstType_0::FloatCvt       602924      0.03%     63.50% # Number of instructions issued per FU type, per thread (Count)
testsys.cpu_cluster.cpus0.statIssuedInstType_0::FloatMult     24063494      1.08%     64.58% # Number of instructions issued per FU type, per thread (Count)
testsys.cpu_cluster.cpus0.statIssuedInstType_0::FloatMultAcc      2142757      0.10%     64.68% # Number of instructions issued per FU type, per thread (Count)
testsys.cpu_cluster.cpus0.statIssuedInstType_0::FloatDiv       868590      0.04%     64.71% # Number of instructions issued per FU type, per thread (Count)
testsys.cpu_cluster.cpus0.statIssuedInstType_0::FloatMisc     37976287      1.71%     66.43% # Number of instructions issued per FU type, per thread (Count)
testsys.cpu_cluster.cpus0.statIssuedInstType_0::FloatSqrt            0      0.00%     66.43% # Number of instructions issued per FU type, per thread (Count)
testsys.cpu_cluster.cpus0.statIssuedInstType_0::SimdAdd            5      0.00%     66.43% # Number of instructions issued per FU type, per thread (Count)
testsys.cpu_cluster.cpus0.statIssuedInstType_0::SimdAddAcc            0      0.00%     66.43% # Number of instructions issued per FU type, per thread (Count)
testsys.cpu_cluster.cpus0.statIssuedInstType_0::SimdAlu       107002      0.00%     66.43% # Number of instructions issued per FU type, per thread (Count)
testsys.cpu_cluster.cpus0.statIssuedInstType_0::SimdCmp            4      0.00%     66.43% # Number of instructions issued per FU type, per thread (Count)
testsys.cpu_cluster.cpus0.statIssuedInstType_0::SimdCvt            0      0.00%     66.43% # Number of instructions issued per FU type, per thread (Count)
testsys.cpu_cluster.cpus0.statIssuedInstType_0::SimdMisc        25080      0.00%     66.43% # Number of instructions issued per FU type, per thread (Count)
testsys.cpu_cluster.cpus0.statIssuedInstType_0::SimdMult            0      0.00%     66.43% # Number of instructions issued per FU type, per thread (Count)
testsys.cpu_cluster.cpus0.statIssuedInstType_0::SimdMultAcc            0      0.00%     66.43% # Number of instructions issued per FU type, per thread (Count)
testsys.cpu_cluster.cpus0.statIssuedInstType_0::SimdShift            5      0.00%     66.43% # Number of instructions issued per FU type, per thread (Count)
testsys.cpu_cluster.cpus0.statIssuedInstType_0::SimdShiftAcc            0      0.00%     66.43% # Number of instructions issued per FU type, per thread (Count)
testsys.cpu_cluster.cpus0.statIssuedInstType_0::SimdDiv            0      0.00%     66.43% # Number of instructions issued per FU type, per thread (Count)
testsys.cpu_cluster.cpus0.statIssuedInstType_0::SimdSqrt            0      0.00%     66.43% # Number of instructions issued per FU type, per thread (Count)
testsys.cpu_cluster.cpus0.statIssuedInstType_0::SimdFloatAdd            0      0.00%     66.43% # Number of instructions issued per FU type, per thread (Count)
testsys.cpu_cluster.cpus0.statIssuedInstType_0::SimdFloatAlu            0      0.00%     66.43% # Number of instructions issued per FU type, per thread (Count)
testsys.cpu_cluster.cpus0.statIssuedInstType_0::SimdFloatCmp            0      0.00%     66.43% # Number of instructions issued per FU type, per thread (Count)
testsys.cpu_cluster.cpus0.statIssuedInstType_0::SimdFloatCvt            0      0.00%     66.43% # Number of instructions issued per FU type, per thread (Count)
testsys.cpu_cluster.cpus0.statIssuedInstType_0::SimdFloatDiv            0      0.00%     66.43% # Number of instructions issued per FU type, per thread (Count)
testsys.cpu_cluster.cpus0.statIssuedInstType_0::SimdFloatMisc            0      0.00%     66.43% # Number of instructions issued per FU type, per thread (Count)
testsys.cpu_cluster.cpus0.statIssuedInstType_0::SimdFloatMult            0      0.00%     66.43% # Number of instructions issued per FU type, per thread (Count)
testsys.cpu_cluster.cpus0.statIssuedInstType_0::SimdFloatMultAcc            0      0.00%     66.43% # Number of instructions issued per FU type, per thread (Count)
testsys.cpu_cluster.cpus0.statIssuedInstType_0::SimdFloatSqrt            0      0.00%     66.43% # Number of instructions issued per FU type, per thread (Count)
testsys.cpu_cluster.cpus0.statIssuedInstType_0::SimdReduceAdd            0      0.00%     66.43% # Number of instructions issued per FU type, per thread (Count)
testsys.cpu_cluster.cpus0.statIssuedInstType_0::SimdReduceAlu            0      0.00%     66.43% # Number of instructions issued per FU type, per thread (Count)
testsys.cpu_cluster.cpus0.statIssuedInstType_0::SimdReduceCmp            0      0.00%     66.43% # Number of instructions issued per FU type, per thread (Count)
testsys.cpu_cluster.cpus0.statIssuedInstType_0::SimdFloatReduceAdd            0      0.00%     66.43% # Number of instructions issued per FU type, per thread (Count)
testsys.cpu_cluster.cpus0.statIssuedInstType_0::SimdFloatReduceCmp            0      0.00%     66.43% # Number of instructions issued per FU type, per thread (Count)
testsys.cpu_cluster.cpus0.statIssuedInstType_0::SimdAes            0      0.00%     66.43% # Number of instructions issued per FU type, per thread (Count)
testsys.cpu_cluster.cpus0.statIssuedInstType_0::SimdAesMix            0      0.00%     66.43% # Number of instructions issued per FU type, per thread (Count)
testsys.cpu_cluster.cpus0.statIssuedInstType_0::SimdSha1Hash            0      0.00%     66.43% # Number of instructions issued per FU type, per thread (Count)
testsys.cpu_cluster.cpus0.statIssuedInstType_0::SimdSha1Hash2            0      0.00%     66.43% # Number of instructions issued per FU type, per thread (Count)
testsys.cpu_cluster.cpus0.statIssuedInstType_0::SimdSha256Hash            0      0.00%     66.43% # Number of instructions issued per FU type, per thread (Count)
testsys.cpu_cluster.cpus0.statIssuedInstType_0::SimdSha256Hash2            0      0.00%     66.43% # Number of instructions issued per FU type, per thread (Count)
testsys.cpu_cluster.cpus0.statIssuedInstType_0::SimdShaSigma2            0      0.00%     66.43% # Number of instructions issued per FU type, per thread (Count)
testsys.cpu_cluster.cpus0.statIssuedInstType_0::SimdShaSigma3            0      0.00%     66.43% # Number of instructions issued per FU type, per thread (Count)
testsys.cpu_cluster.cpus0.statIssuedInstType_0::SimdPredAlu            0      0.00%     66.43% # Number of instructions issued per FU type, per thread (Count)
testsys.cpu_cluster.cpus0.statIssuedInstType_0::MemRead    628291044     28.30%     94.73% # Number of instructions issued per FU type, per thread (Count)
testsys.cpu_cluster.cpus0.statIssuedInstType_0::MemWrite    116945576      5.27%    100.00% # Number of instructions issued per FU type, per thread (Count)
testsys.cpu_cluster.cpus0.statIssuedInstType_0::FloatMemRead            0      0.00%    100.00% # Number of instructions issued per FU type, per thread (Count)
testsys.cpu_cluster.cpus0.statIssuedInstType_0::FloatMemWrite            0      0.00%    100.00% # Number of instructions issued per FU type, per thread (Count)
testsys.cpu_cluster.cpus0.statIssuedInstType_0::IprAccess            0      0.00%    100.00% # Number of instructions issued per FU type, per thread (Count)
testsys.cpu_cluster.cpus0.statIssuedInstType_0::InstPrefetch            0      0.00%    100.00% # Number of instructions issued per FU type, per thread (Count)
testsys.cpu_cluster.cpus0.statIssuedInstType_0::total   2220029659                       # Number of instructions issued per FU type, per thread (Count)
testsys.cpu_cluster.cpus0.issueRate          2.906711                       # Inst issue rate ((Count/Cycle))
testsys.cpu_cluster.cpus0.fuBusy             73476020                       # FU busy when requested (Count)
testsys.cpu_cluster.cpus0.fuBusyRate         0.033097                       # FU busy rate (busy events/executed inst) ((Count/Count))
testsys.cpu_cluster.cpus0.intInstQueueReads   4342083076                       # Number of integer instruction queue reads (Count)
testsys.cpu_cluster.cpus0.intInstQueueWrites   2536690858                       # Number of integer instruction queue writes (Count)
testsys.cpu_cluster.cpus0.intInstQueueWakeupAccesses   1717416471                       # Number of integer instruction queue wakeup accesses (Count)
testsys.cpu_cluster.cpus0.fpInstQueueReads            0                       # Number of floating instruction queue reads (Count)
testsys.cpu_cluster.cpus0.fpInstQueueWrites            0                       # Number of floating instruction queue writes (Count)
testsys.cpu_cluster.cpus0.fpInstQueueWakeupAccesses            0                       # Number of floating instruction queue wakeup accesses (Count)
testsys.cpu_cluster.cpus0.vecInstQueueReads    939386032                       # Number of vector instruction queue reads (Count)
testsys.cpu_cluster.cpus0.vecInstQueueWrites    565730514                       # Number of vector instruction queue writes (Count)
testsys.cpu_cluster.cpus0.vecInstQueueWakeupAccesses    451663224                       # Number of vector instruction queue wakeup accesses (Count)
testsys.cpu_cluster.cpus0.intAluAccesses   1818152467                       # Number of integer alu accesses (Count)
testsys.cpu_cluster.cpus0.fpAluAccesses             0                       # Number of floating point alu accesses (Count)
testsys.cpu_cluster.cpus0.vecAluAccesses    475351179                       # Number of vector alu accesses (Count)
testsys.cpu_cluster.cpus0.idleCycles                0                       # Number of cycles IEW is idle (Cycle)
testsys.cpu_cluster.cpus0.squashCycles       16987988                       # Number of cycles IEW is squashing (Cycle)
testsys.cpu_cluster.cpus0.blockCycles        79712929                       # Number of cycles IEW is blocking (Cycle)
testsys.cpu_cluster.cpus0.unblockCycles       7386704                       # Number of cycles IEW is unblocking (Cycle)
testsys.cpu_cluster.cpus0.dispatchedInsts   2464702455                       # Number of instructions dispatched to IQ (Count)
testsys.cpu_cluster.cpus0.dispSquashedInsts      1702828                       # Number of squashed instructions skipped by dispatch (Count)
testsys.cpu_cluster.cpus0.dispLoadInsts     649203714                       # Number of dispatched load instructions (Count)
testsys.cpu_cluster.cpus0.dispStoreInsts    125363841                       # Number of dispatched store instructions (Count)
testsys.cpu_cluster.cpus0.dispNonSpecInsts        49705                       # Number of dispatched non-speculative instructions (Count)
testsys.cpu_cluster.cpus0.iqFullEvents         681934                       # Number of times the IQ has become full, causing a stall (Count)
testsys.cpu_cluster.cpus0.lsqFullEvents       5835667                       # Number of times the LSQ has become full, causing a stall (Count)
testsys.cpu_cluster.cpus0.memOrderViolationEvents        96271                       # Number of memory order violations (Count)
testsys.cpu_cluster.cpus0.predictedTakenIncorrect     12107532                       # Number of branches that were predicted taken incorrectly (Count)
testsys.cpu_cluster.cpus0.predictedNotTakenIncorrect      7465078                       # Number of branches that were predicted not taken incorrectly (Count)
testsys.cpu_cluster.cpus0.branchMispredicts     19572610                       # Number of branch mispredicts detected at execute (Count)
testsys.cpu_cluster.cpus0.numInsts         2187863357                       # Number of executed instructions (Count)
testsys.cpu_cluster.cpus0.numLoadInsts      622327163                       # Number of load instructions executed (Count)
testsys.cpu_cluster.cpus0.numSquashedInsts     32118402                       # Number of squashed instructions skipped in execute (Count)
testsys.cpu_cluster.cpus0.numSwp                    0                       # Number of swp insts executed (Count)
testsys.cpu_cluster.cpus0.numNop              2187705                       # Number of nop insts executed (Count)
testsys.cpu_cluster.cpus0.numRefs           738778803                       # Number of memory reference insts executed (Count)
testsys.cpu_cluster.cpus0.numBranches       206854456                       # Number of branches executed (Count)
testsys.cpu_cluster.cpus0.numStoreInsts     116451640                       # Number of stores executed (Count)
testsys.cpu_cluster.cpus0.numRate            2.864596                       # Inst execution rate ((Count/Cycle))
testsys.cpu_cluster.cpus0.instsToCommit    2178871958                       # Cumulative count of insts sent to commit (Count)
testsys.cpu_cluster.cpus0.writebackCount   2169079695                       # Cumulative count of insts written-back (Count)
testsys.cpu_cluster.cpus0.producerInst     1727017903                       # Number of instructions producing a value (Count)
testsys.cpu_cluster.cpus0.consumerInst     2435406349                       # Number of instructions consuming a value (Count)
testsys.cpu_cluster.cpus0.wbRate             2.840002                       # Insts written-back per cycle ((Count/Cycle))
testsys.cpu_cluster.cpus0.wbFanout           0.709129                       # Average fanout of values written-back ((Count/Count))
testsys.cpu_cluster.cpus0.timesIdled            18221                       # Number of times that the entire CPU went into an idle state and unscheduled itself (Count)
testsys.cpu_cluster.cpus0.idleCycles          2722006                       # Total number of cycles that the CPU has spent unscheduled due to idling (Cycle)
testsys.cpu_cluster.cpus0.quiesceCycles        905872                       # Total number of cycles that CPU has spent quiesced or waiting for an interrupt (Cycle)
testsys.cpu_cluster.cpus0.committedInsts   1819973628                       # Number of Instructions Simulated (Count)
testsys.cpu_cluster.cpus0.committedOps     1822701974                       # Number of Ops (including micro ops) Simulated (Count)
testsys.cpu_cluster.cpus0.cpi                0.419654                       # CPI: Cycles Per Instruction ((Cycle/Count))
testsys.cpu_cluster.cpus0.totalCpi           0.419654                       # CPI: Total CPI of All Threads ((Cycle/Count))
testsys.cpu_cluster.cpus0.ipc                2.382913                       # IPC: Instructions Per Cycle ((Count/Cycle))
testsys.cpu_cluster.cpus0.totalIpc           2.382913                       # IPC: Total IPC of All Threads ((Count/Cycle))
testsys.cpu_cluster.cpus0.intRegfileReads   2324664680                       # Number of integer regfile reads (Count)
testsys.cpu_cluster.cpus0.intRegfileWrites   1452308886                       # Number of integer regfile writes (Count)
testsys.cpu_cluster.cpus0.vecRegfileReads    341663600                       # number of vector regfile reads (Count)
testsys.cpu_cluster.cpus0.vecRegfileWrites    346147268                       # number of vector regfile writes (Count)
testsys.cpu_cluster.cpus0.ccRegfileReads    651893544                       # number of cc regfile reads (Count)
testsys.cpu_cluster.cpus0.ccRegfileWrites    710087158                       # number of cc regfile writes (Count)
testsys.cpu_cluster.cpus0.miscRegfileReads  15454601457                       # number of misc regfile reads (Count)
testsys.cpu_cluster.cpus0.miscRegfileWrites    159918881                       # number of misc regfile writes (Count)
testsys.cpu_cluster.cpus0.MemDepUnit__0.insertedLoads    649203714                       # Number of loads inserted to the mem dependence unit. (Count)
testsys.cpu_cluster.cpus0.MemDepUnit__0.insertedStores    125363841                       # Number of stores inserted to the mem dependence unit. (Count)
testsys.cpu_cluster.cpus0.MemDepUnit__0.conflictingLoads    220484391                       # Number of conflicting loads. (Count)
testsys.cpu_cluster.cpus0.MemDepUnit__0.conflictingStores     37383599                       # Number of conflicting stores. (Count)
testsys.cpu_cluster.cpus0.MemDepUnit__1.insertedLoads            0                       # Number of loads inserted to the mem dependence unit. (Count)
testsys.cpu_cluster.cpus0.MemDepUnit__1.insertedStores            0                       # Number of stores inserted to the mem dependence unit. (Count)
testsys.cpu_cluster.cpus0.MemDepUnit__1.conflictingLoads            0                       # Number of conflicting loads. (Count)
testsys.cpu_cluster.cpus0.MemDepUnit__1.conflictingStores            0                       # Number of conflicting stores. (Count)
testsys.cpu_cluster.cpus0.MemDepUnit__2.insertedLoads            0                       # Number of loads inserted to the mem dependence unit. (Count)
testsys.cpu_cluster.cpus0.MemDepUnit__2.insertedStores            0                       # Number of stores inserted to the mem dependence unit. (Count)
testsys.cpu_cluster.cpus0.MemDepUnit__2.conflictingLoads            0                       # Number of conflicting loads. (Count)
testsys.cpu_cluster.cpus0.MemDepUnit__2.conflictingStores            0                       # Number of conflicting stores. (Count)
testsys.cpu_cluster.cpus0.MemDepUnit__3.insertedLoads            0                       # Number of loads inserted to the mem dependence unit. (Count)
testsys.cpu_cluster.cpus0.MemDepUnit__3.insertedStores            0                       # Number of stores inserted to the mem dependence unit. (Count)
testsys.cpu_cluster.cpus0.MemDepUnit__3.conflictingLoads            0                       # Number of conflicting loads. (Count)
testsys.cpu_cluster.cpus0.MemDepUnit__3.conflictingStores            0                       # Number of conflicting stores. (Count)
testsys.cpu_cluster.cpus0.branchPred.lookups    329588281                       # Number of BP lookups (Count)
testsys.cpu_cluster.cpus0.branchPred.condPredicted    307725868                       # Number of conditional branches predicted (Count)
testsys.cpu_cluster.cpus0.branchPred.condIncorrect     16967054                       # Number of conditional branches incorrect (Count)
testsys.cpu_cluster.cpus0.branchPred.BTBLookups    262725700                       # Number of BTB lookups (Count)
testsys.cpu_cluster.cpus0.branchPred.BTBHits    262304904                       # Number of BTB hits (Count)
testsys.cpu_cluster.cpus0.branchPred.BTBHitRatio     0.998398                       # BTB Hit Ratio (Ratio)
testsys.cpu_cluster.cpus0.branchPred.RASUsed      4271406                       # Number of times the RAS was used to get a target. (Count)
testsys.cpu_cluster.cpus0.branchPred.RASIncorrect         1821                       # Number of incorrect RAS predictions. (Count)
testsys.cpu_cluster.cpus0.branchPred.indirectLookups      1405762                       # Number of indirect predictor lookups. (Count)
testsys.cpu_cluster.cpus0.branchPred.indirectHits      1215133                       # Number of indirect target hits. (Count)
testsys.cpu_cluster.cpus0.branchPred.indirectMisses       190629                       # Number of indirect misses. (Count)
testsys.cpu_cluster.cpus0.branchPred.indirectMispredicted         2762                       # Number of mispredicted indirect branches. (Count)
testsys.cpu_cluster.cpus0.commit.commitSquashedInsts    639923291                       # The number of squashed insts skipped by commit (Count)
testsys.cpu_cluster.cpus0.commit.commitNonSpecStalls        51763                       # The number of times commit has been forced to stall to communicate backwards (Count)
testsys.cpu_cluster.cpus0.commit.branchMispredicts     16903071                       # The number of times a branch was mispredicted (Count)
testsys.cpu_cluster.cpus0.commit.numCommittedDist::samples    672887673                       # Number of insts commited each cycle (Count)
testsys.cpu_cluster.cpus0.commit.numCommittedDist::mean     2.711870                       # Number of insts commited each cycle (Count)
testsys.cpu_cluster.cpus0.commit.numCommittedDist::stdev     3.101863                       # Number of insts commited each cycle (Count)
testsys.cpu_cluster.cpus0.commit.numCommittedDist::underflows            0      0.00%      0.00% # Number of insts commited each cycle (Count)
testsys.cpu_cluster.cpus0.commit.numCommittedDist::0    255430733     37.96%     37.96% # Number of insts commited each cycle (Count)
testsys.cpu_cluster.cpus0.commit.numCommittedDist::1    106768576     15.87%     53.83% # Number of insts commited each cycle (Count)
testsys.cpu_cluster.cpus0.commit.numCommittedDist::2     60745492      9.03%     62.86% # Number of insts commited each cycle (Count)
testsys.cpu_cluster.cpus0.commit.numCommittedDist::3     27155776      4.04%     66.89% # Number of insts commited each cycle (Count)
testsys.cpu_cluster.cpus0.commit.numCommittedDist::4     34690860      5.16%     72.05% # Number of insts commited each cycle (Count)
testsys.cpu_cluster.cpus0.commit.numCommittedDist::5     15639715      2.32%     74.37% # Number of insts commited each cycle (Count)
testsys.cpu_cluster.cpus0.commit.numCommittedDist::6     34370401      5.11%     79.48% # Number of insts commited each cycle (Count)
testsys.cpu_cluster.cpus0.commit.numCommittedDist::7     12816292      1.90%     81.38% # Number of insts commited each cycle (Count)
testsys.cpu_cluster.cpus0.commit.numCommittedDist::8    125269828     18.62%    100.00% # Number of insts commited each cycle (Count)
testsys.cpu_cluster.cpus0.commit.numCommittedDist::overflows            0      0.00%    100.00% # Number of insts commited each cycle (Count)
testsys.cpu_cluster.cpus0.commit.numCommittedDist::min_value            0                       # Number of insts commited each cycle (Count)
testsys.cpu_cluster.cpus0.commit.numCommittedDist::max_value            8                       # Number of insts commited each cycle (Count)
testsys.cpu_cluster.cpus0.commit.numCommittedDist::total    672887673                       # Number of insts commited each cycle (Count)
testsys.cpu_cluster.cpus0.commit.instsCommitted   1822055631                       # Number of instructions committed (Count)
testsys.cpu_cluster.cpus0.commit.opsCommitted   1824783977                       # Number of ops (including micro ops) committed (Count)
testsys.cpu_cluster.cpus0.commit.memRefs    666330024                       # Number of memory references committed (Count)
testsys.cpu_cluster.cpus0.commit.loads      555729239                       # Number of loads committed (Count)
testsys.cpu_cluster.cpus0.commit.amos           16837                       # Number of atomic instructions committed (Count)
testsys.cpu_cluster.cpus0.commit.membars        38714                       # Number of memory barriers committed (Count)
testsys.cpu_cluster.cpus0.commit.branches    171785668                       # Number of branches committed (Count)
testsys.cpu_cluster.cpus0.commit.vectorInstructions    432658236                       # Number of committed Vector instructions. (Count)
testsys.cpu_cluster.cpus0.commit.floating            0                       # Number of committed floating point instructions. (Count)
testsys.cpu_cluster.cpus0.commit.integer   1502567934                       # Number of committed integer instructions. (Count)
testsys.cpu_cluster.cpus0.commit.functionCalls      3495245                       # Number of function calls committed. (Count)
testsys.cpu_cluster.cpus0.commit.committedInstType_0::No_OpClass          633      0.00%      0.00% # Class of committed instruction (Count)
testsys.cpu_cluster.cpus0.commit.committedInstType_0::IntAlu    991018329     54.31%     54.31% # Class of committed instruction (Count)
testsys.cpu_cluster.cpus0.commit.committedInstType_0::IntMult      2039622      0.11%     54.42% # Class of committed instruction (Count)
testsys.cpu_cluster.cpus0.commit.committedInstType_0::IntDiv       204420      0.01%     54.43% # Class of committed instruction (Count)
testsys.cpu_cluster.cpus0.commit.committedInstType_0::FloatAdd     53931277      2.96%     57.39% # Class of committed instruction (Count)
testsys.cpu_cluster.cpus0.commit.committedInstType_0::FloatCmp     47983437      2.63%     60.02% # Class of committed instruction (Count)
testsys.cpu_cluster.cpus0.commit.committedInstType_0::FloatCvt       599714      0.03%     60.05% # Class of committed instruction (Count)
testsys.cpu_cluster.cpus0.commit.committedInstType_0::FloatMult     23377993      1.28%     61.33% # Class of committed instruction (Count)
testsys.cpu_cluster.cpus0.commit.committedInstType_0::FloatMultAcc      2122305      0.12%     61.45% # Class of committed instruction (Count)
testsys.cpu_cluster.cpus0.commit.committedInstType_0::FloatDiv       847794      0.05%     61.49% # Class of committed instruction (Count)
testsys.cpu_cluster.cpus0.commit.committedInstType_0::FloatMisc     36212190      1.98%     63.48% # Class of committed instruction (Count)
testsys.cpu_cluster.cpus0.commit.committedInstType_0::FloatSqrt            0      0.00%     63.48% # Class of committed instruction (Count)
testsys.cpu_cluster.cpus0.commit.committedInstType_0::SimdAdd            5      0.00%     63.48% # Class of committed instruction (Count)
testsys.cpu_cluster.cpus0.commit.committedInstType_0::SimdAddAcc            0      0.00%     63.48% # Class of committed instruction (Count)
testsys.cpu_cluster.cpus0.commit.committedInstType_0::SimdAlu       106395      0.01%     63.48% # Class of committed instruction (Count)
testsys.cpu_cluster.cpus0.commit.committedInstType_0::SimdCmp            4      0.00%     63.48% # Class of committed instruction (Count)
testsys.cpu_cluster.cpus0.commit.committedInstType_0::SimdCvt            0      0.00%     63.48% # Class of committed instruction (Count)
testsys.cpu_cluster.cpus0.commit.committedInstType_0::SimdMisc         9830      0.00%     63.48% # Class of committed instruction (Count)
testsys.cpu_cluster.cpus0.commit.committedInstType_0::SimdMult            0      0.00%     63.48% # Class of committed instruction (Count)
testsys.cpu_cluster.cpus0.commit.committedInstType_0::SimdMultAcc            0      0.00%     63.48% # Class of committed instruction (Count)
testsys.cpu_cluster.cpus0.commit.committedInstType_0::SimdShift            5      0.00%     63.48% # Class of committed instruction (Count)
testsys.cpu_cluster.cpus0.commit.committedInstType_0::SimdShiftAcc            0      0.00%     63.48% # Class of committed instruction (Count)
testsys.cpu_cluster.cpus0.commit.committedInstType_0::SimdDiv            0      0.00%     63.48% # Class of committed instruction (Count)
testsys.cpu_cluster.cpus0.commit.committedInstType_0::SimdSqrt            0      0.00%     63.48% # Class of committed instruction (Count)
testsys.cpu_cluster.cpus0.commit.committedInstType_0::SimdFloatAdd            0      0.00%     63.48% # Class of committed instruction (Count)
testsys.cpu_cluster.cpus0.commit.committedInstType_0::SimdFloatAlu            0      0.00%     63.48% # Class of committed instruction (Count)
testsys.cpu_cluster.cpus0.commit.committedInstType_0::SimdFloatCmp            0      0.00%     63.48% # Class of committed instruction (Count)
testsys.cpu_cluster.cpus0.commit.committedInstType_0::SimdFloatCvt            0      0.00%     63.48% # Class of committed instruction (Count)
testsys.cpu_cluster.cpus0.commit.committedInstType_0::SimdFloatDiv            0      0.00%     63.48% # Class of committed instruction (Count)
testsys.cpu_cluster.cpus0.commit.committedInstType_0::SimdFloatMisc            0      0.00%     63.48% # Class of committed instruction (Count)
testsys.cpu_cluster.cpus0.commit.committedInstType_0::SimdFloatMult            0      0.00%     63.48% # Class of committed instruction (Count)
testsys.cpu_cluster.cpus0.commit.committedInstType_0::SimdFloatMultAcc            0      0.00%     63.48% # Class of committed instruction (Count)
testsys.cpu_cluster.cpus0.commit.committedInstType_0::SimdFloatSqrt            0      0.00%     63.48% # Class of committed instruction (Count)
testsys.cpu_cluster.cpus0.commit.committedInstType_0::SimdReduceAdd            0      0.00%     63.48% # Class of committed instruction (Count)
testsys.cpu_cluster.cpus0.commit.committedInstType_0::SimdReduceAlu            0      0.00%     63.48% # Class of committed instruction (Count)
testsys.cpu_cluster.cpus0.commit.committedInstType_0::SimdReduceCmp            0      0.00%     63.48% # Class of committed instruction (Count)
testsys.cpu_cluster.cpus0.commit.committedInstType_0::SimdFloatReduceAdd            0      0.00%     63.48% # Class of committed instruction (Count)
testsys.cpu_cluster.cpus0.commit.committedInstType_0::SimdFloatReduceCmp            0      0.00%     63.48% # Class of committed instruction (Count)
testsys.cpu_cluster.cpus0.commit.committedInstType_0::SimdAes            0      0.00%     63.48% # Class of committed instruction (Count)
testsys.cpu_cluster.cpus0.commit.committedInstType_0::SimdAesMix            0      0.00%     63.48% # Class of committed instruction (Count)
testsys.cpu_cluster.cpus0.commit.committedInstType_0::SimdSha1Hash            0      0.00%     63.48% # Class of committed instruction (Count)
testsys.cpu_cluster.cpus0.commit.committedInstType_0::SimdSha1Hash2            0      0.00%     63.48% # Class of committed instruction (Count)
testsys.cpu_cluster.cpus0.commit.committedInstType_0::SimdSha256Hash            0      0.00%     63.48% # Class of committed instruction (Count)
testsys.cpu_cluster.cpus0.commit.committedInstType_0::SimdSha256Hash2            0      0.00%     63.48% # Class of committed instruction (Count)
testsys.cpu_cluster.cpus0.commit.committedInstType_0::SimdShaSigma2            0      0.00%     63.48% # Class of committed instruction (Count)
testsys.cpu_cluster.cpus0.commit.committedInstType_0::SimdShaSigma3            0      0.00%     63.48% # Class of committed instruction (Count)
testsys.cpu_cluster.cpus0.commit.committedInstType_0::SimdPredAlu            0      0.00%     63.48% # Class of committed instruction (Count)
testsys.cpu_cluster.cpus0.commit.committedInstType_0::MemRead    555729239     30.45%     93.94% # Class of committed instruction (Count)
testsys.cpu_cluster.cpus0.commit.committedInstType_0::MemWrite    110600785      6.06%    100.00% # Class of committed instruction (Count)
testsys.cpu_cluster.cpus0.commit.committedInstType_0::FloatMemRead            0      0.00%    100.00% # Class of committed instruction (Count)
testsys.cpu_cluster.cpus0.commit.committedInstType_0::FloatMemWrite            0      0.00%    100.00% # Class of committed instruction (Count)
testsys.cpu_cluster.cpus0.commit.committedInstType_0::IprAccess            0      0.00%    100.00% # Class of committed instruction (Count)
testsys.cpu_cluster.cpus0.commit.committedInstType_0::InstPrefetch            0      0.00%    100.00% # Class of committed instruction (Count)
testsys.cpu_cluster.cpus0.commit.committedInstType_0::total   1824783977                       # Class of committed instruction (Count)
testsys.cpu_cluster.cpus0.commit.commitEligibleSamples    125269828                       # number cycles where commit BW limit reached (Cycle)
testsys.cpu_cluster.cpus0.dcache.demandHits::cpu_cluster.cpus0.data    469177829                       # number of demand (read+write) hits (Count)
testsys.cpu_cluster.cpus0.dcache.demandHits::total    469177829                       # number of demand (read+write) hits (Count)
testsys.cpu_cluster.cpus0.dcache.overallHits::cpu_cluster.cpus0.data    469178567                       # number of overall hits (Count)
testsys.cpu_cluster.cpus0.dcache.overallHits::total    469178567                       # number of overall hits (Count)
testsys.cpu_cluster.cpus0.dcache.demandMisses::cpu_cluster.cpus0.data      4862055                       # number of demand (read+write) misses (Count)
testsys.cpu_cluster.cpus0.dcache.demandMisses::total      4862055                       # number of demand (read+write) misses (Count)
testsys.cpu_cluster.cpus0.dcache.overallMisses::cpu_cluster.cpus0.data      4862281                       # number of overall misses (Count)
testsys.cpu_cluster.cpus0.dcache.overallMisses::total      4862281                       # number of overall misses (Count)
testsys.cpu_cluster.cpus0.dcache.demandMissLatency::cpu_cluster.cpus0.data  21698274790                       # number of demand (read+write) miss ticks (Tick)
testsys.cpu_cluster.cpus0.dcache.demandMissLatency::total  21698274790                       # number of demand (read+write) miss ticks (Tick)
testsys.cpu_cluster.cpus0.dcache.overallMissLatency::cpu_cluster.cpus0.data  21698274790                       # number of overall miss ticks (Tick)
testsys.cpu_cluster.cpus0.dcache.overallMissLatency::total  21698274790                       # number of overall miss ticks (Tick)
testsys.cpu_cluster.cpus0.dcache.demandAccesses::cpu_cluster.cpus0.data    474039884                       # number of demand (read+write) accesses (Count)
testsys.cpu_cluster.cpus0.dcache.demandAccesses::total    474039884                       # number of demand (read+write) accesses (Count)
testsys.cpu_cluster.cpus0.dcache.overallAccesses::cpu_cluster.cpus0.data    474040848                       # number of overall (read+write) accesses (Count)
testsys.cpu_cluster.cpus0.dcache.overallAccesses::total    474040848                       # number of overall (read+write) accesses (Count)
testsys.cpu_cluster.cpus0.dcache.demandMissRate::cpu_cluster.cpus0.data     0.010257                       # miss rate for demand accesses (Ratio)
testsys.cpu_cluster.cpus0.dcache.demandMissRate::total     0.010257                       # miss rate for demand accesses (Ratio)
testsys.cpu_cluster.cpus0.dcache.overallMissRate::cpu_cluster.cpus0.data     0.010257                       # miss rate for overall accesses (Ratio)
testsys.cpu_cluster.cpus0.dcache.overallMissRate::total     0.010257                       # miss rate for overall accesses (Ratio)
testsys.cpu_cluster.cpus0.dcache.demandAvgMissLatency::cpu_cluster.cpus0.data  4462.778556                       # average overall miss latency ((Cycle/Count))
testsys.cpu_cluster.cpus0.dcache.demandAvgMissLatency::total  4462.778556                       # average overall miss latency ((Cycle/Count))
testsys.cpu_cluster.cpus0.dcache.overallAvgMissLatency::cpu_cluster.cpus0.data  4462.571125                       # average overall miss latency ((Cycle/Count))
testsys.cpu_cluster.cpus0.dcache.overallAvgMissLatency::total  4462.571125                       # average overall miss latency ((Cycle/Count))
testsys.cpu_cluster.cpus0.dcache.blockedCycles::no_mshrs        65103                       # number of cycles access was blocked (Cycle)
testsys.cpu_cluster.cpus0.dcache.blockedCycles::no_targets        32134                       # number of cycles access was blocked (Cycle)
testsys.cpu_cluster.cpus0.dcache.blockedCauses::no_mshrs         7077                       # number of times access was blocked (Count)
testsys.cpu_cluster.cpus0.dcache.blockedCauses::no_targets          514                       # number of times access was blocked (Count)
testsys.cpu_cluster.cpus0.dcache.avgBlocked::no_mshrs     9.199237                       # average number of cycles each access was blocked ((Cycle/Count))
testsys.cpu_cluster.cpus0.dcache.avgBlocked::no_targets    62.517510                       # average number of cycles each access was blocked ((Cycle/Count))
testsys.cpu_cluster.cpus0.dcache.writebacks::writebacks      1457491                       # number of writebacks (Count)
testsys.cpu_cluster.cpus0.dcache.writebacks::total      1457491                       # number of writebacks (Count)
testsys.cpu_cluster.cpus0.dcache.demandMshrHits::cpu_cluster.cpus0.data      3377213                       # number of demand (read+write) MSHR hits (Count)
testsys.cpu_cluster.cpus0.dcache.demandMshrHits::total      3377213                       # number of demand (read+write) MSHR hits (Count)
testsys.cpu_cluster.cpus0.dcache.overallMshrHits::cpu_cluster.cpus0.data      3377213                       # number of overall MSHR hits (Count)
testsys.cpu_cluster.cpus0.dcache.overallMshrHits::total      3377213                       # number of overall MSHR hits (Count)
testsys.cpu_cluster.cpus0.dcache.demandMshrMisses::cpu_cluster.cpus0.data      1484842                       # number of demand (read+write) MSHR misses (Count)
testsys.cpu_cluster.cpus0.dcache.demandMshrMisses::total      1484842                       # number of demand (read+write) MSHR misses (Count)
testsys.cpu_cluster.cpus0.dcache.overallMshrMisses::cpu_cluster.cpus0.data      1485042                       # number of overall MSHR misses (Count)
testsys.cpu_cluster.cpus0.dcache.overallMshrMisses::total      1485042                       # number of overall MSHR misses (Count)
testsys.cpu_cluster.cpus0.dcache.overallMshrUncacheable::cpu_cluster.cpus0.data         3000                       # number of overall MSHR uncacheable misses (Count)
testsys.cpu_cluster.cpus0.dcache.overallMshrUncacheable::total         3000                       # number of overall MSHR uncacheable misses (Count)
testsys.cpu_cluster.cpus0.dcache.demandMshrMissLatency::cpu_cluster.cpus0.data   8051040290                       # number of demand (read+write) MSHR miss ticks (Tick)
testsys.cpu_cluster.cpus0.dcache.demandMshrMissLatency::total   8051040290                       # number of demand (read+write) MSHR miss ticks (Tick)
testsys.cpu_cluster.cpus0.dcache.overallMshrMissLatency::cpu_cluster.cpus0.data   8056898790                       # number of overall MSHR miss ticks (Tick)
testsys.cpu_cluster.cpus0.dcache.overallMshrMissLatency::total   8056898790                       # number of overall MSHR miss ticks (Tick)
testsys.cpu_cluster.cpus0.dcache.overallMshrUncacheableLatency::cpu_cluster.cpus0.data    296447750                       # number of overall MSHR uncacheable ticks (Tick)
testsys.cpu_cluster.cpus0.dcache.overallMshrUncacheableLatency::total    296447750                       # number of overall MSHR uncacheable ticks (Tick)
testsys.cpu_cluster.cpus0.dcache.demandMshrMissRate::cpu_cluster.cpus0.data     0.003132                       # mshr miss ratio for demand accesses (Ratio)
testsys.cpu_cluster.cpus0.dcache.demandMshrMissRate::total     0.003132                       # mshr miss ratio for demand accesses (Ratio)
testsys.cpu_cluster.cpus0.dcache.overallMshrMissRate::cpu_cluster.cpus0.data     0.003133                       # mshr miss ratio for overall accesses (Ratio)
testsys.cpu_cluster.cpus0.dcache.overallMshrMissRate::total     0.003133                       # mshr miss ratio for overall accesses (Ratio)
testsys.cpu_cluster.cpus0.dcache.demandAvgMshrMissLatency::cpu_cluster.cpus0.data  5422.152855                       # average overall mshr miss latency ((Cycle/Count))
testsys.cpu_cluster.cpus0.dcache.demandAvgMshrMissLatency::total  5422.152855                       # average overall mshr miss latency ((Cycle/Count))
testsys.cpu_cluster.cpus0.dcache.overallAvgMshrMissLatency::cpu_cluster.cpus0.data  5425.367626                       # average overall mshr miss latency ((Cycle/Count))
testsys.cpu_cluster.cpus0.dcache.overallAvgMshrMissLatency::total  5425.367626                       # average overall mshr miss latency ((Cycle/Count))
testsys.cpu_cluster.cpus0.dcache.overallAvgMshrUncacheableLatency::cpu_cluster.cpus0.data 98815.916667                       # average overall mshr uncacheable latency ((Cycle/Count))
testsys.cpu_cluster.cpus0.dcache.overallAvgMshrUncacheableLatency::total 98815.916667                       # average overall mshr uncacheable latency ((Cycle/Count))
testsys.cpu_cluster.cpus0.dcache.replacements      1484901                       # number of replacements (Count)
testsys.cpu_cluster.cpus0.dcache.LoadLockedReq.hits::cpu_cluster.cpus0.data        17889                       # number of LoadLockedReq hits (Count)
testsys.cpu_cluster.cpus0.dcache.LoadLockedReq.hits::total        17889                       # number of LoadLockedReq hits (Count)
testsys.cpu_cluster.cpus0.dcache.LoadLockedReq.misses::cpu_cluster.cpus0.data           27                       # number of LoadLockedReq misses (Count)
testsys.cpu_cluster.cpus0.dcache.LoadLockedReq.misses::total           27                       # number of LoadLockedReq misses (Count)
testsys.cpu_cluster.cpus0.dcache.LoadLockedReq.missLatency::cpu_cluster.cpus0.data       206500                       # number of LoadLockedReq miss ticks (Tick)
testsys.cpu_cluster.cpus0.dcache.LoadLockedReq.missLatency::total       206500                       # number of LoadLockedReq miss ticks (Tick)
testsys.cpu_cluster.cpus0.dcache.LoadLockedReq.accesses::cpu_cluster.cpus0.data        17916                       # number of LoadLockedReq accesses(hits+misses) (Count)
testsys.cpu_cluster.cpus0.dcache.LoadLockedReq.accesses::total        17916                       # number of LoadLockedReq accesses(hits+misses) (Count)
testsys.cpu_cluster.cpus0.dcache.LoadLockedReq.missRate::cpu_cluster.cpus0.data     0.001507                       # miss rate for LoadLockedReq accesses (Ratio)
testsys.cpu_cluster.cpus0.dcache.LoadLockedReq.missRate::total     0.001507                       # miss rate for LoadLockedReq accesses (Ratio)
testsys.cpu_cluster.cpus0.dcache.LoadLockedReq.avgMissLatency::cpu_cluster.cpus0.data  7648.148148                       # average LoadLockedReq miss latency ((Tick/Count))
testsys.cpu_cluster.cpus0.dcache.LoadLockedReq.avgMissLatency::total  7648.148148                       # average LoadLockedReq miss latency ((Tick/Count))
testsys.cpu_cluster.cpus0.dcache.LoadLockedReq.mshrHits::cpu_cluster.cpus0.data           16                       # number of LoadLockedReq MSHR hits (Count)
testsys.cpu_cluster.cpus0.dcache.LoadLockedReq.mshrHits::total           16                       # number of LoadLockedReq MSHR hits (Count)
testsys.cpu_cluster.cpus0.dcache.LoadLockedReq.mshrMisses::cpu_cluster.cpus0.data           11                       # number of LoadLockedReq MSHR misses (Count)
testsys.cpu_cluster.cpus0.dcache.LoadLockedReq.mshrMisses::total           11                       # number of LoadLockedReq MSHR misses (Count)
testsys.cpu_cluster.cpus0.dcache.LoadLockedReq.mshrMissLatency::cpu_cluster.cpus0.data        94750                       # number of LoadLockedReq MSHR miss ticks (Tick)
testsys.cpu_cluster.cpus0.dcache.LoadLockedReq.mshrMissLatency::total        94750                       # number of LoadLockedReq MSHR miss ticks (Tick)
testsys.cpu_cluster.cpus0.dcache.LoadLockedReq.mshrMissRate::cpu_cluster.cpus0.data     0.000614                       # mshr miss rate for LoadLockedReq accesses (Ratio)
testsys.cpu_cluster.cpus0.dcache.LoadLockedReq.mshrMissRate::total     0.000614                       # mshr miss rate for LoadLockedReq accesses (Ratio)
testsys.cpu_cluster.cpus0.dcache.LoadLockedReq.avgMshrMissLatency::cpu_cluster.cpus0.data  8613.636364                       # average LoadLockedReq mshr miss latency ((Tick/Count))
testsys.cpu_cluster.cpus0.dcache.LoadLockedReq.avgMshrMissLatency::total  8613.636364                       # average LoadLockedReq mshr miss latency ((Tick/Count))
testsys.cpu_cluster.cpus0.dcache.ReadReq.hits::cpu_cluster.cpus0.data    358694760                       # number of ReadReq hits (Count)
testsys.cpu_cluster.cpus0.dcache.ReadReq.hits::total    358694760                       # number of ReadReq hits (Count)
testsys.cpu_cluster.cpus0.dcache.ReadReq.misses::cpu_cluster.cpus0.data      4780392                       # number of ReadReq misses (Count)
testsys.cpu_cluster.cpus0.dcache.ReadReq.misses::total      4780392                       # number of ReadReq misses (Count)
testsys.cpu_cluster.cpus0.dcache.ReadReq.missLatency::cpu_cluster.cpus0.data  20806602000                       # number of ReadReq miss ticks (Tick)
testsys.cpu_cluster.cpus0.dcache.ReadReq.missLatency::total  20806602000                       # number of ReadReq miss ticks (Tick)
testsys.cpu_cluster.cpus0.dcache.ReadReq.accesses::cpu_cluster.cpus0.data    363475152                       # number of ReadReq accesses(hits+misses) (Count)
testsys.cpu_cluster.cpus0.dcache.ReadReq.accesses::total    363475152                       # number of ReadReq accesses(hits+misses) (Count)
testsys.cpu_cluster.cpus0.dcache.ReadReq.missRate::cpu_cluster.cpus0.data     0.013152                       # miss rate for ReadReq accesses (Ratio)
testsys.cpu_cluster.cpus0.dcache.ReadReq.missRate::total     0.013152                       # miss rate for ReadReq accesses (Ratio)
testsys.cpu_cluster.cpus0.dcache.ReadReq.avgMissLatency::cpu_cluster.cpus0.data  4352.488666                       # average ReadReq miss latency ((Tick/Count))
testsys.cpu_cluster.cpus0.dcache.ReadReq.avgMissLatency::total  4352.488666                       # average ReadReq miss latency ((Tick/Count))
testsys.cpu_cluster.cpus0.dcache.ReadReq.mshrHits::cpu_cluster.cpus0.data      3331749                       # number of ReadReq MSHR hits (Count)
testsys.cpu_cluster.cpus0.dcache.ReadReq.mshrHits::total      3331749                       # number of ReadReq MSHR hits (Count)
testsys.cpu_cluster.cpus0.dcache.ReadReq.mshrMisses::cpu_cluster.cpus0.data      1448643                       # number of ReadReq MSHR misses (Count)
testsys.cpu_cluster.cpus0.dcache.ReadReq.mshrMisses::total      1448643                       # number of ReadReq MSHR misses (Count)
testsys.cpu_cluster.cpus0.dcache.ReadReq.mshrUncacheable::cpu_cluster.cpus0.data         1461                       # number of ReadReq MSHR uncacheable (Count)
testsys.cpu_cluster.cpus0.dcache.ReadReq.mshrUncacheable::total         1461                       # number of ReadReq MSHR uncacheable (Count)
testsys.cpu_cluster.cpus0.dcache.ReadReq.mshrMissLatency::cpu_cluster.cpus0.data   7532543000                       # number of ReadReq MSHR miss ticks (Tick)
testsys.cpu_cluster.cpus0.dcache.ReadReq.mshrMissLatency::total   7532543000                       # number of ReadReq MSHR miss ticks (Tick)
testsys.cpu_cluster.cpus0.dcache.ReadReq.mshrUncacheableLatency::cpu_cluster.cpus0.data    296447750                       # number of ReadReq MSHR uncacheable ticks (Tick)
testsys.cpu_cluster.cpus0.dcache.ReadReq.mshrUncacheableLatency::total    296447750                       # number of ReadReq MSHR uncacheable ticks (Tick)
testsys.cpu_cluster.cpus0.dcache.ReadReq.mshrMissRate::cpu_cluster.cpus0.data     0.003986                       # mshr miss rate for ReadReq accesses (Ratio)
testsys.cpu_cluster.cpus0.dcache.ReadReq.mshrMissRate::total     0.003986                       # mshr miss rate for ReadReq accesses (Ratio)
testsys.cpu_cluster.cpus0.dcache.ReadReq.avgMshrMissLatency::cpu_cluster.cpus0.data  5199.723465                       # average ReadReq mshr miss latency ((Tick/Count))
testsys.cpu_cluster.cpus0.dcache.ReadReq.avgMshrMissLatency::total  5199.723465                       # average ReadReq mshr miss latency ((Tick/Count))
testsys.cpu_cluster.cpus0.dcache.ReadReq.avgMshrUncacheableLatency::cpu_cluster.cpus0.data 202907.426420                       # average ReadReq mshr uncacheable latency ((Tick/Count))
testsys.cpu_cluster.cpus0.dcache.ReadReq.avgMshrUncacheableLatency::total 202907.426420                       # average ReadReq mshr uncacheable latency ((Tick/Count))
testsys.cpu_cluster.cpus0.dcache.SoftPFExReq.hits::cpu_cluster.cpus0.data          107                       # number of SoftPFExReq hits (Count)
testsys.cpu_cluster.cpus0.dcache.SoftPFExReq.hits::total          107                       # number of SoftPFExReq hits (Count)
testsys.cpu_cluster.cpus0.dcache.SoftPFExReq.misses::cpu_cluster.cpus0.data            2                       # number of SoftPFExReq misses (Count)
testsys.cpu_cluster.cpus0.dcache.SoftPFExReq.misses::total            2                       # number of SoftPFExReq misses (Count)
testsys.cpu_cluster.cpus0.dcache.SoftPFExReq.accesses::cpu_cluster.cpus0.data          109                       # number of SoftPFExReq accesses(hits+misses) (Count)
testsys.cpu_cluster.cpus0.dcache.SoftPFExReq.accesses::total          109                       # number of SoftPFExReq accesses(hits+misses) (Count)
testsys.cpu_cluster.cpus0.dcache.SoftPFExReq.missRate::cpu_cluster.cpus0.data     0.018349                       # miss rate for SoftPFExReq accesses (Ratio)
testsys.cpu_cluster.cpus0.dcache.SoftPFExReq.missRate::total     0.018349                       # miss rate for SoftPFExReq accesses (Ratio)
testsys.cpu_cluster.cpus0.dcache.SoftPFExReq.mshrMisses::cpu_cluster.cpus0.data            2                       # number of SoftPFExReq MSHR misses (Count)
testsys.cpu_cluster.cpus0.dcache.SoftPFExReq.mshrMisses::total            2                       # number of SoftPFExReq MSHR misses (Count)
testsys.cpu_cluster.cpus0.dcache.SoftPFExReq.mshrMissLatency::cpu_cluster.cpus0.data         8000                       # number of SoftPFExReq MSHR miss ticks (Tick)
testsys.cpu_cluster.cpus0.dcache.SoftPFExReq.mshrMissLatency::total         8000                       # number of SoftPFExReq MSHR miss ticks (Tick)
testsys.cpu_cluster.cpus0.dcache.SoftPFExReq.mshrMissRate::cpu_cluster.cpus0.data     0.018349                       # mshr miss rate for SoftPFExReq accesses (Ratio)
testsys.cpu_cluster.cpus0.dcache.SoftPFExReq.mshrMissRate::total     0.018349                       # mshr miss rate for SoftPFExReq accesses (Ratio)
testsys.cpu_cluster.cpus0.dcache.SoftPFExReq.avgMshrMissLatency::cpu_cluster.cpus0.data         4000                       # average SoftPFExReq mshr miss latency ((Tick/Count))
testsys.cpu_cluster.cpus0.dcache.SoftPFExReq.avgMshrMissLatency::total         4000                       # average SoftPFExReq mshr miss latency ((Tick/Count))
testsys.cpu_cluster.cpus0.dcache.SoftPFReq.hits::cpu_cluster.cpus0.data          631                       # number of SoftPFReq hits (Count)
testsys.cpu_cluster.cpus0.dcache.SoftPFReq.hits::total          631                       # number of SoftPFReq hits (Count)
testsys.cpu_cluster.cpus0.dcache.SoftPFReq.misses::cpu_cluster.cpus0.data          224                       # number of SoftPFReq misses (Count)
testsys.cpu_cluster.cpus0.dcache.SoftPFReq.misses::total          224                       # number of SoftPFReq misses (Count)
testsys.cpu_cluster.cpus0.dcache.SoftPFReq.accesses::cpu_cluster.cpus0.data          855                       # number of SoftPFReq accesses(hits+misses) (Count)
testsys.cpu_cluster.cpus0.dcache.SoftPFReq.accesses::total          855                       # number of SoftPFReq accesses(hits+misses) (Count)
testsys.cpu_cluster.cpus0.dcache.SoftPFReq.missRate::cpu_cluster.cpus0.data     0.261988                       # miss rate for SoftPFReq accesses (Ratio)
testsys.cpu_cluster.cpus0.dcache.SoftPFReq.missRate::total     0.261988                       # miss rate for SoftPFReq accesses (Ratio)
testsys.cpu_cluster.cpus0.dcache.SoftPFReq.mshrMisses::cpu_cluster.cpus0.data          198                       # number of SoftPFReq MSHR misses (Count)
testsys.cpu_cluster.cpus0.dcache.SoftPFReq.mshrMisses::total          198                       # number of SoftPFReq MSHR misses (Count)
testsys.cpu_cluster.cpus0.dcache.SoftPFReq.mshrMissLatency::cpu_cluster.cpus0.data      5850500                       # number of SoftPFReq MSHR miss ticks (Tick)
testsys.cpu_cluster.cpus0.dcache.SoftPFReq.mshrMissLatency::total      5850500                       # number of SoftPFReq MSHR miss ticks (Tick)
testsys.cpu_cluster.cpus0.dcache.SoftPFReq.mshrMissRate::cpu_cluster.cpus0.data     0.231579                       # mshr miss rate for SoftPFReq accesses (Ratio)
testsys.cpu_cluster.cpus0.dcache.SoftPFReq.mshrMissRate::total     0.231579                       # mshr miss rate for SoftPFReq accesses (Ratio)
testsys.cpu_cluster.cpus0.dcache.SoftPFReq.avgMshrMissLatency::cpu_cluster.cpus0.data 29547.979798                       # average SoftPFReq mshr miss latency ((Tick/Count))
testsys.cpu_cluster.cpus0.dcache.SoftPFReq.avgMshrMissLatency::total 29547.979798                       # average SoftPFReq mshr miss latency ((Tick/Count))
testsys.cpu_cluster.cpus0.dcache.StoreCondReq.hits::cpu_cluster.cpus0.data        17780                       # number of StoreCondReq hits (Count)
testsys.cpu_cluster.cpus0.dcache.StoreCondReq.hits::total        17780                       # number of StoreCondReq hits (Count)
testsys.cpu_cluster.cpus0.dcache.StoreCondReq.accesses::cpu_cluster.cpus0.data        17780                       # number of StoreCondReq accesses(hits+misses) (Count)
testsys.cpu_cluster.cpus0.dcache.StoreCondReq.accesses::total        17780                       # number of StoreCondReq accesses(hits+misses) (Count)
testsys.cpu_cluster.cpus0.dcache.SwapReq.hits::cpu_cluster.cpus0.data        15725                       # number of SwapReq hits (Count)
testsys.cpu_cluster.cpus0.dcache.SwapReq.hits::total        15725                       # number of SwapReq hits (Count)
testsys.cpu_cluster.cpus0.dcache.SwapReq.misses::cpu_cluster.cpus0.data         1112                       # number of SwapReq misses (Count)
testsys.cpu_cluster.cpus0.dcache.SwapReq.misses::total         1112                       # number of SwapReq misses (Count)
testsys.cpu_cluster.cpus0.dcache.SwapReq.missLatency::cpu_cluster.cpus0.data     14935000                       # number of SwapReq miss ticks (Tick)
testsys.cpu_cluster.cpus0.dcache.SwapReq.missLatency::total     14935000                       # number of SwapReq miss ticks (Tick)
testsys.cpu_cluster.cpus0.dcache.SwapReq.accesses::cpu_cluster.cpus0.data        16837                       # number of SwapReq accesses(hits+misses) (Count)
testsys.cpu_cluster.cpus0.dcache.SwapReq.accesses::total        16837                       # number of SwapReq accesses(hits+misses) (Count)
testsys.cpu_cluster.cpus0.dcache.SwapReq.missRate::cpu_cluster.cpus0.data     0.066045                       # miss rate for SwapReq accesses (Ratio)
testsys.cpu_cluster.cpus0.dcache.SwapReq.missRate::total     0.066045                       # miss rate for SwapReq accesses (Ratio)
testsys.cpu_cluster.cpus0.dcache.SwapReq.avgMissLatency::cpu_cluster.cpus0.data 13430.755396                       # average SwapReq miss latency ((Tick/Count))
testsys.cpu_cluster.cpus0.dcache.SwapReq.avgMissLatency::total 13430.755396                       # average SwapReq miss latency ((Tick/Count))
testsys.cpu_cluster.cpus0.dcache.SwapReq.mshrHits::cpu_cluster.cpus0.data            1                       # number of SwapReq MSHR hits (Count)
testsys.cpu_cluster.cpus0.dcache.SwapReq.mshrHits::total            1                       # number of SwapReq MSHR hits (Count)
testsys.cpu_cluster.cpus0.dcache.SwapReq.mshrMisses::cpu_cluster.cpus0.data         1111                       # number of SwapReq MSHR misses (Count)
testsys.cpu_cluster.cpus0.dcache.SwapReq.mshrMisses::total         1111                       # number of SwapReq MSHR misses (Count)
testsys.cpu_cluster.cpus0.dcache.SwapReq.mshrMissLatency::cpu_cluster.cpus0.data     14654250                       # number of SwapReq MSHR miss ticks (Tick)
testsys.cpu_cluster.cpus0.dcache.SwapReq.mshrMissLatency::total     14654250                       # number of SwapReq MSHR miss ticks (Tick)
testsys.cpu_cluster.cpus0.dcache.SwapReq.mshrMissRate::cpu_cluster.cpus0.data     0.065986                       # mshr miss rate for SwapReq accesses (Ratio)
testsys.cpu_cluster.cpus0.dcache.SwapReq.mshrMissRate::total     0.065986                       # mshr miss rate for SwapReq accesses (Ratio)
testsys.cpu_cluster.cpus0.dcache.SwapReq.avgMshrMissLatency::cpu_cluster.cpus0.data 13190.144014                       # average SwapReq mshr miss latency ((Tick/Count))
testsys.cpu_cluster.cpus0.dcache.SwapReq.avgMshrMissLatency::total 13190.144014                       # average SwapReq mshr miss latency ((Tick/Count))
testsys.cpu_cluster.cpus0.dcache.WriteLineReq.hits::cpu_cluster.cpus0.data          153                       # number of WriteLineReq hits (Count)
testsys.cpu_cluster.cpus0.dcache.WriteLineReq.hits::total          153                       # number of WriteLineReq hits (Count)
testsys.cpu_cluster.cpus0.dcache.WriteLineReq.misses::cpu_cluster.cpus0.data         9848                       # number of WriteLineReq misses (Count)
testsys.cpu_cluster.cpus0.dcache.WriteLineReq.misses::total         9848                       # number of WriteLineReq misses (Count)
testsys.cpu_cluster.cpus0.dcache.WriteLineReq.missLatency::cpu_cluster.cpus0.data    351421556                       # number of WriteLineReq miss ticks (Tick)
testsys.cpu_cluster.cpus0.dcache.WriteLineReq.missLatency::total    351421556                       # number of WriteLineReq miss ticks (Tick)
testsys.cpu_cluster.cpus0.dcache.WriteLineReq.accesses::cpu_cluster.cpus0.data        10001                       # number of WriteLineReq accesses(hits+misses) (Count)
testsys.cpu_cluster.cpus0.dcache.WriteLineReq.accesses::total        10001                       # number of WriteLineReq accesses(hits+misses) (Count)
testsys.cpu_cluster.cpus0.dcache.WriteLineReq.missRate::cpu_cluster.cpus0.data     0.984702                       # miss rate for WriteLineReq accesses (Ratio)
testsys.cpu_cluster.cpus0.dcache.WriteLineReq.missRate::total     0.984702                       # miss rate for WriteLineReq accesses (Ratio)
testsys.cpu_cluster.cpus0.dcache.WriteLineReq.avgMissLatency::cpu_cluster.cpus0.data 35684.560926                       # average WriteLineReq miss latency ((Tick/Count))
testsys.cpu_cluster.cpus0.dcache.WriteLineReq.avgMissLatency::total 35684.560926                       # average WriteLineReq miss latency ((Tick/Count))
testsys.cpu_cluster.cpus0.dcache.WriteLineReq.mshrHits::cpu_cluster.cpus0.data           13                       # number of WriteLineReq MSHR hits (Count)
testsys.cpu_cluster.cpus0.dcache.WriteLineReq.mshrHits::total           13                       # number of WriteLineReq MSHR hits (Count)
testsys.cpu_cluster.cpus0.dcache.WriteLineReq.mshrMisses::cpu_cluster.cpus0.data         9835                       # number of WriteLineReq MSHR misses (Count)
testsys.cpu_cluster.cpus0.dcache.WriteLineReq.mshrMisses::total         9835                       # number of WriteLineReq MSHR misses (Count)
testsys.cpu_cluster.cpus0.dcache.WriteLineReq.mshrMissLatency::cpu_cluster.cpus0.data    348701806                       # number of WriteLineReq MSHR miss ticks (Tick)
testsys.cpu_cluster.cpus0.dcache.WriteLineReq.mshrMissLatency::total    348701806                       # number of WriteLineReq MSHR miss ticks (Tick)
testsys.cpu_cluster.cpus0.dcache.WriteLineReq.mshrMissRate::cpu_cluster.cpus0.data     0.983402                       # mshr miss rate for WriteLineReq accesses (Ratio)
testsys.cpu_cluster.cpus0.dcache.WriteLineReq.mshrMissRate::total     0.983402                       # mshr miss rate for WriteLineReq accesses (Ratio)
testsys.cpu_cluster.cpus0.dcache.WriteLineReq.avgMshrMissLatency::cpu_cluster.cpus0.data 35455.191256                       # average WriteLineReq mshr miss latency ((Tick/Count))
testsys.cpu_cluster.cpus0.dcache.WriteLineReq.avgMshrMissLatency::total 35455.191256                       # average WriteLineReq mshr miss latency ((Tick/Count))
testsys.cpu_cluster.cpus0.dcache.WriteReq.hits::cpu_cluster.cpus0.data    110482916                       # number of WriteReq hits (Count)
testsys.cpu_cluster.cpus0.dcache.WriteReq.hits::total    110482916                       # number of WriteReq hits (Count)
testsys.cpu_cluster.cpus0.dcache.WriteReq.misses::cpu_cluster.cpus0.data        71815                       # number of WriteReq misses (Count)
testsys.cpu_cluster.cpus0.dcache.WriteReq.misses::total        71815                       # number of WriteReq misses (Count)
testsys.cpu_cluster.cpus0.dcache.WriteReq.missLatency::cpu_cluster.cpus0.data    540251234                       # number of WriteReq miss ticks (Tick)
testsys.cpu_cluster.cpus0.dcache.WriteReq.missLatency::total    540251234                       # number of WriteReq miss ticks (Tick)
testsys.cpu_cluster.cpus0.dcache.WriteReq.accesses::cpu_cluster.cpus0.data    110554731                       # number of WriteReq accesses(hits+misses) (Count)
testsys.cpu_cluster.cpus0.dcache.WriteReq.accesses::total    110554731                       # number of WriteReq accesses(hits+misses) (Count)
testsys.cpu_cluster.cpus0.dcache.WriteReq.missRate::cpu_cluster.cpus0.data     0.000650                       # miss rate for WriteReq accesses (Ratio)
testsys.cpu_cluster.cpus0.dcache.WriteReq.missRate::total     0.000650                       # miss rate for WriteReq accesses (Ratio)
testsys.cpu_cluster.cpus0.dcache.WriteReq.avgMissLatency::cpu_cluster.cpus0.data  7522.818826                       # average WriteReq miss latency ((Tick/Count))
testsys.cpu_cluster.cpus0.dcache.WriteReq.avgMissLatency::total  7522.818826                       # average WriteReq miss latency ((Tick/Count))
testsys.cpu_cluster.cpus0.dcache.WriteReq.mshrHits::cpu_cluster.cpus0.data        45451                       # number of WriteReq MSHR hits (Count)
testsys.cpu_cluster.cpus0.dcache.WriteReq.mshrHits::total        45451                       # number of WriteReq MSHR hits (Count)
testsys.cpu_cluster.cpus0.dcache.WriteReq.mshrMisses::cpu_cluster.cpus0.data        26364                       # number of WriteReq MSHR misses (Count)
testsys.cpu_cluster.cpus0.dcache.WriteReq.mshrMisses::total        26364                       # number of WriteReq MSHR misses (Count)
testsys.cpu_cluster.cpus0.dcache.WriteReq.mshrUncacheable::cpu_cluster.cpus0.data         1539                       # number of WriteReq MSHR uncacheable (Count)
testsys.cpu_cluster.cpus0.dcache.WriteReq.mshrUncacheable::total         1539                       # number of WriteReq MSHR uncacheable (Count)
testsys.cpu_cluster.cpus0.dcache.WriteReq.mshrMissLatency::cpu_cluster.cpus0.data    169795484                       # number of WriteReq MSHR miss ticks (Tick)
testsys.cpu_cluster.cpus0.dcache.WriteReq.mshrMissLatency::total    169795484                       # number of WriteReq MSHR miss ticks (Tick)
testsys.cpu_cluster.cpus0.dcache.WriteReq.mshrMissRate::cpu_cluster.cpus0.data     0.000238                       # mshr miss rate for WriteReq accesses (Ratio)
testsys.cpu_cluster.cpus0.dcache.WriteReq.mshrMissRate::total     0.000238                       # mshr miss rate for WriteReq accesses (Ratio)
testsys.cpu_cluster.cpus0.dcache.WriteReq.avgMshrMissLatency::cpu_cluster.cpus0.data  6440.429525                       # average WriteReq mshr miss latency ((Tick/Count))
testsys.cpu_cluster.cpus0.dcache.WriteReq.avgMshrMissLatency::total  6440.429525                       # average WriteReq mshr miss latency ((Tick/Count))
testsys.cpu_cluster.cpus0.dcache.power_state.pwrStateResidencyTicks::UNDEFINED 617146862500                       # Cumulative time (in ticks) in various power states (Tick)
testsys.cpu_cluster.cpus0.dcache.tags.tagsInUse   511.931851                       # Average ticks per tags in use ((Tick/Count))
testsys.cpu_cluster.cpus0.dcache.tags.totalRefs    470726268                       # Total number of references to valid blocks. (Count)
testsys.cpu_cluster.cpus0.dcache.tags.sampledRefs      1485278                       # Sample count of references to valid blocks. (Count)
testsys.cpu_cluster.cpus0.dcache.tags.avgRefs   316.928055                       # Average number of references to valid blocks. ((Count/Count))
testsys.cpu_cluster.cpus0.dcache.tags.warmupTick            0                       # The tick when the warmup percentage was hit. (Tick)
testsys.cpu_cluster.cpus0.dcache.tags.occupancies::cpu_cluster.cpus0.data   511.931851                       # Average occupied blocks per tick, per requestor ((Count/Tick))
testsys.cpu_cluster.cpus0.dcache.tags.avgOccs::cpu_cluster.cpus0.data     0.999867                       # Average percentage of cache occupancy ((Ratio/Tick))
testsys.cpu_cluster.cpus0.dcache.tags.avgOccs::total     0.999867                       # Average percentage of cache occupancy ((Ratio/Tick))
testsys.cpu_cluster.cpus0.dcache.tags.occupanciesTaskId::1024          512                       # Occupied blocks per task id (Count)
testsys.cpu_cluster.cpus0.dcache.tags.ageTaskId_1024::0          150                       # Occupied blocks per task id, per block age (Count)
testsys.cpu_cluster.cpus0.dcache.tags.ageTaskId_1024::1          309                       # Occupied blocks per task id, per block age (Count)
testsys.cpu_cluster.cpus0.dcache.tags.ageTaskId_1024::2           53                       # Occupied blocks per task id, per block age (Count)
testsys.cpu_cluster.cpus0.dcache.tags.ratioOccsTaskId::1024            1                       # Ratio of occupied blocks and all blocks, per task id (Ratio)
testsys.cpu_cluster.cpus0.dcache.tags.tagAccesses    949672040                       # Number of tag accesses (Count)
testsys.cpu_cluster.cpus0.dcache.tags.dataAccesses    949672040                       # Number of data accesses (Count)
testsys.cpu_cluster.cpus0.dcache.tags.power_state.pwrStateResidencyTicks::UNDEFINED 617146862500                       # Cumulative time (in ticks) in various power states (Tick)
testsys.cpu_cluster.cpus0.decode.idleCycles     79146982                       # Number of cycles decode is idle (Cycle)
testsys.cpu_cluster.cpus0.decode.blockedCycles    277505529                       # Number of cycles decode is blocked (Cycle)
testsys.cpu_cluster.cpus0.decode.runCycles    280117720                       # Number of cycles decode is running (Cycle)
testsys.cpu_cluster.cpus0.decode.unblockCycles    107279678                       # Number of cycles decode is unblocking (Cycle)
testsys.cpu_cluster.cpus0.decode.squashCycles     16987988                       # Number of cycles decode is squashing (Cycle)
testsys.cpu_cluster.cpus0.decode.branchResolved    237613378                       # Number of times decode resolved a branch (Count)
testsys.cpu_cluster.cpus0.decode.branchMispred        65925                       # Number of times decode detected a branch misprediction (Count)
testsys.cpu_cluster.cpus0.decode.decodedInsts   2729684393                       # Number of instructions handled by decode (Count)
[...]
testsys.pci_devices1.power_state.pwrStateResidencyTicks::UNDEFINED 617573011000                       # Cumulative time (in ticks) in various power states (Tick)
testsys.pci_devices2.EtherDevice.postedInterrupts            0                       # Number of posts to CPU (Count)
testsys.pci_devices2.EtherDevice.descDmaReads            0                       # Number of descriptors the device read w/ DMA (Count)
testsys.pci_devices2.EtherDevice.descDmaWrites            0                       # Number of descriptors the device wrote w/ DMA (Count)
testsys.pci_devices2.EtherDevice.descDmaRdBytes            0                       # Number of descriptor bytes read w/ DMA (Count)
testsys.pci_devices2.EtherDevice.descDmaWrBytes            0                       # Number of descriptor bytes write w/ DMA (Count)
testsys.pci_devices2.EtherDevice.postedSwi            0                       # Number of software interrupts posted to CPU (Count)
testsys.pci_devices2.EtherDevice.totalSwi            0                       # Total number of Swi written to ISR (Count)
testsys.pci_devices2.EtherDevice.coalescedSwi          nan                       # Average number of Swi's coalesced into each post ((Count/Count))
testsys.pci_devices2.EtherDevice.postedRxIdle            0                       # Number of rxIdle interrupts posted to CPU (Count)
testsys.pci_devices2.EtherDevice.totalRxIdle            0                       # Total number of RxIdle written to ISR (Count)
testsys.pci_devices2.EtherDevice.coalescedRxIdle          nan                       # Average number of RxIdle's coalesced into each post ((Count/Count))
testsys.pci_devices2.EtherDevice.postedRxOk            0                       # Number of RxOk interrupts posted to CPU (Count)
testsys.pci_devices2.EtherDevice.totalRxOk            0                       # Total number of RxOk written to ISR (Count)
testsys.pci_devices2.EtherDevice.coalescedRxOk          nan                       # Average number of RxOk's coalesced into each post ((Count/Count))
testsys.pci_devices2.EtherDevice.postedRxDesc            0                       # Number of RxDesc interrupts posted to CPU (Count)
testsys.pci_devices2.EtherDevice.totalRxDesc            0                       # Total number of RxDesc written to ISR (Count)
testsys.pci_devices2.EtherDevice.coalescedRxDesc          nan                       # Average number of RxDesc's coalesced into each post ((Count/Count))
testsys.pci_devices2.EtherDevice.postedTxOk            0                       # Number of TxOk interrupts posted to CPU (Count)
testsys.pci_devices2.EtherDevice.totalTxOk            0                       # Total number of TxOk written to ISR (Count)
testsys.pci_devices2.EtherDevice.coalescedTxOk          nan                       # Average number of TxOk's coalesced into each post ((Count/Count))
testsys.pci_devices2.EtherDevice.postedTxIdle            0                       # Number of TxIdle interrupts posted to CPU (Count)
testsys.pci_devices2.EtherDevice.totalTxIdle            0                       # Total number of TxIdle written to ISR (Count)
testsys.pci_devices2.EtherDevice.coalescedTxIdle          nan                       # Average number of TxIdle's coalesced into each post ((Count/Count))
testsys.pci_devices2.EtherDevice.postedTxDesc            0                       # Number of TxDesc interrupts posted to CPU (Count)
testsys.pci_devices2.EtherDevice.totalTxDesc            0                       # Total number of TxDesc written to ISR (Count)
testsys.pci_devices2.EtherDevice.coalescedTxDesc          nan                       # Average number of TxDesc's coalesced into each post ((Count/Count))
testsys.pci_devices2.EtherDevice.postedRxOrn            0                       # Number of RxOrn posted to CPU (Count)
testsys.pci_devices2.EtherDevice.totalRxOrn            0                       # Total number of RxOrn written to ISR (Count)
testsys.pci_devices2.EtherDevice.coalescedRxOrn          nan                       # Average number of RxOrn's coalesced into each post ((Count/Count))
testsys.pci_devices2.EtherDevice.coalescedTotal          nan                       # Average number of interrupts coalesced into each post ((Count/Count))
testsys.pci_devices2.EtherDevice.droppedPackets            0                       # Number of packets dropped (Count)
testsys.pci_devices2.power_state.pwrStateResidencyTicks::UNDEFINED 617573011000                       # Cumulative time (in ticks) in various power states (Tick)
testsys.pci_devices3.EtherDevice.postedInterrupts            0                       # Number of posts to CPU (Count)
testsys.pci_devices3.EtherDevice.descDmaReads            0                       # Number of descriptors the device read w/ DMA (Count)
testsys.pci_devices3.EtherDevice.descDmaWrites            0                       # Number of descriptors the device wrote w/ DMA (Count)
testsys.pci_devices3.EtherDevice.descDmaRdBytes            0                       # Number of descriptor bytes read w/ DMA (Count)
testsys.pci_devices3.EtherDevice.descDmaWrBytes            0                       # Number of descriptor bytes write w/ DMA (Count)
testsys.pci_devices3.EtherDevice.postedSwi            0                       # Number of software interrupts posted to CPU (Count)
testsys.pci_devices3.EtherDevice.totalSwi            0                       # Total number of Swi written to ISR (Count)
testsys.pci_devices3.EtherDevice.coalescedSwi          nan                       # Average number of Swi's coalesced into each post ((Count/Count))
testsys.pci_devices3.EtherDevice.postedRxIdle            0                       # Number of rxIdle interrupts posted to CPU (Count)
testsys.pci_devices3.EtherDevice.totalRxIdle            0                       # Total number of RxIdle written to ISR (Count)
testsys.pci_devices3.EtherDevice.coalescedRxIdle          nan                       # Average number of RxIdle's coalesced into each post ((Count/Count))
testsys.pci_devices3.EtherDevice.postedRxOk            0                       # Number of RxOk interrupts posted to CPU (Count)
testsys.pci_devices3.EtherDevice.totalRxOk            0                       # Total number of RxOk written to ISR (Count)
testsys.pci_devices3.EtherDevice.coalescedRxOk          nan                       # Average number of RxOk's coalesced into each post ((Count/Count))
testsys.pci_devices3.EtherDevice.postedRxDesc            0                       # Number of RxDesc interrupts posted to CPU (Count)
testsys.pci_devices3.EtherDevice.totalRxDesc            0                       # Total number of RxDesc written to ISR (Count)
testsys.pci_devices3.EtherDevice.coalescedRxDesc          nan                       # Average number of RxDesc's coalesced into each post ((Count/Count))
testsys.pci_devices3.EtherDevice.postedTxOk            0                       # Number of TxOk interrupts posted to CPU (Count)
testsys.pci_devices3.EtherDevice.totalTxOk            0                       # Total number of TxOk written to ISR (Count)
testsys.pci_devices3.EtherDevice.coalescedTxOk          nan                       # Average number of TxOk's coalesced into each post ((Count/Count))
testsys.pci_devices3.EtherDevice.postedTxIdle            0                       # Number of TxIdle interrupts posted to CPU (Count)
testsys.pci_devices3.EtherDevice.totalTxIdle            0                       # Total number of TxIdle written to ISR (Count)
testsys.pci_devices3.EtherDevice.coalescedTxIdle          nan                       # Average number of TxIdle's coalesced into each post ((Count/Count))
testsys.pci_devices3.EtherDevice.postedTxDesc            0                       # Number of TxDesc interrupts posted to CPU (Count)
testsys.pci_devices3.EtherDevice.totalTxDesc            0                       # Total number of TxDesc written to ISR (Count)
testsys.pci_devices3.EtherDevice.coalescedTxDesc          nan                       # Average number of TxDesc's coalesced into each post ((Count/Count))
testsys.pci_devices3.EtherDevice.postedRxOrn            0                       # Number of RxOrn posted to CPU (Count)
testsys.pci_devices3.EtherDevice.totalRxOrn            0                       # Total number of RxOrn written to ISR (Count)
testsys.pci_devices3.EtherDevice.coalescedRxOrn          nan                       # Average number of RxOrn's coalesced into each post ((Count/Count))
testsys.pci_devices3.EtherDevice.coalescedTotal          nan                       # Average number of interrupts coalesced into each post ((Count/Count))
testsys.pci_devices3.EtherDevice.droppedPackets            0                       # Number of packets dropped (Count)
testsys.pci_devices3.power_state.pwrStateResidencyTicks::UNDEFINED 617573011000                       # Cumulative time (in ticks) in various power states (Tick)
testsys.pci_devices4.EtherDevice.postedInterrupts            0                       # Number of posts to CPU (Count)
testsys.pci_devices4.EtherDevice.descDmaReads            0                       # Number of descriptors the device read w/ DMA (Count)
testsys.pci_devices4.EtherDevice.descDmaWrites            0                       # Number of descriptors the device wrote w/ DMA (Count)
testsys.pci_devices4.EtherDevice.descDmaRdBytes            0                       # Number of descriptor bytes read w/ DMA (Count)
testsys.pci_devices4.EtherDevice.descDmaWrBytes            0                       # Number of descriptor bytes write w/ DMA (Count)
testsys.pci_devices4.EtherDevice.postedSwi            0                       # Number of software interrupts posted to CPU (Count)
testsys.pci_devices4.EtherDevice.totalSwi            0                       # Total number of Swi written to ISR (Count)
testsys.pci_devices4.EtherDevice.coalescedSwi          nan                       # Average number of Swi's coalesced into each post ((Count/Count))
testsys.pci_devices4.EtherDevice.postedRxIdle            0                       # Number of rxIdle interrupts posted to CPU (Count)
testsys.pci_devices4.EtherDevice.totalRxIdle            0                       # Total number of RxIdle written to ISR (Count)
testsys.pci_devices4.EtherDevice.coalescedRxIdle          nan                       # Average number of RxIdle's coalesced into each post ((Count/Count))
testsys.pci_devices4.EtherDevice.postedRxOk            0                       # Number of RxOk interrupts posted to CPU (Count)
testsys.pci_devices4.EtherDevice.totalRxOk            0                       # Total number of RxOk written to ISR (Count)
testsys.pci_devices4.EtherDevice.coalescedRxOk          nan                       # Average number of RxOk's coalesced into each post ((Count/Count))
testsys.pci_devices4.EtherDevice.postedRxDesc            0                       # Number of RxDesc interrupts posted to CPU (Count)
testsys.pci_devices4.EtherDevice.totalRxDesc            0                       # Total number of RxDesc written to ISR (Count)
testsys.pci_devices4.EtherDevice.coalescedRxDesc          nan                       # Average number of RxDesc's coalesced into each post ((Count/Count))
testsys.pci_devices4.EtherDevice.postedTxOk            0                       # Number of TxOk interrupts posted to CPU (Count)
testsys.pci_devices4.EtherDevice.totalTxOk            0                       # Total number of TxOk written to ISR (Count)
testsys.pci_devices4.EtherDevice.coalescedTxOk          nan                       # Average number of TxOk's coalesced into each post ((Count/Count))
testsys.pci_devices4.EtherDevice.postedTxIdle            0                       # Number of TxIdle interrupts posted to CPU (Count)
testsys.pci_devices4.EtherDevice.totalTxIdle            0                       # Total number of TxIdle written to ISR (Count)
testsys.pci_devices4.EtherDevice.coalescedTxIdle          nan                       # Average number of TxIdle's coalesced into each post ((Count/Count))
testsys.pci_devices4.EtherDevice.postedTxDesc            0                       # Number of TxDesc interrupts posted to CPU (Count)
testsys.pci_devices4.EtherDevice.totalTxDesc            0                       # Total number of TxDesc written to ISR (Count)
testsys.pci_devices4.EtherDevice.coalescedTxDesc          nan                       # Average number of TxDesc's coalesced into each post ((Count/Count))
testsys.pci_devices4.EtherDevice.postedRxOrn            0                       # Number of RxOrn posted to CPU (Count)
testsys.pci_devices4.EtherDevice.totalRxOrn            0                       # Total number of RxOrn written to ISR (Count)
testsys.pci_devices4.EtherDevice.coalescedRxOrn          nan                       # Average number of RxOrn's coalesced into each post ((Count/Count))
testsys.pci_devices4.EtherDevice.coalescedTotal          nan                       # Average number of interrupts coalesced into each post ((Count/Count))
testsys.pci_devices4.EtherDevice.droppedPackets            0                       # Number of packets dropped (Count)
testsys.pci_devices4.power_state.pwrStateResidencyTicks::UNDEFINED 617573011000                       # Cumulative time (in ticks) in various power states (Tick)
testsys.realview.bootmem.power_state.pwrStateResidencyTicks::UNDEFINED 617573011000                       # Cumulative time (in ticks) in various power states (Tick)
testsys.realview.clock24MHz.clock               41667                       # Clock period in ticks (Tick)
testsys.realview.clock32KHz.clock            31250000                       # Clock period in ticks (Tick)
testsys.realview.dcc.osc_cpu.clock              16667                       # Clock period in ticks (Tick)
testsys.realview.dcc.osc_ddr.clock              25000                       # Clock period in ticks (Tick)
testsys.realview.dcc.osc_hsbm.clock             25000                       # Clock period in ticks (Tick)
testsys.realview.dcc.osc_pxl.clock              42105                       # Clock period in ticks (Tick)
testsys.realview.dcc.osc_smb.clock              20000                       # Clock period in ticks (Tick)
testsys.realview.dcc.osc_sys.clock              16667                       # Clock period in ticks (Tick)
testsys.realview.el2_watchdog.power_state.pwrStateResidencyTicks::UNDEFINED 617573011000                       # Cumulative time (in ticks) in various power states (Tick)
testsys.realview.energy_ctrl.power_state.pwrStateResidencyTicks::UNDEFINED 617573011000                       # Cumulative time (in ticks) in various power states (Tick)
testsys.realview.flash0.power_state.pwrStateResidencyTicks::UNDEFINED 617573011000                       # Cumulative time (in ticks) in various power states (Tick)
testsys.realview.flash1.power_state.pwrStateResidencyTicks::UNDEFINED 617573011000                       # Cumulative time (in ticks) in various power states (Tick)
testsys.realview.generic_timer_mem.frames0.power_state.pwrStateResidencyTicks::UNDEFINED 617573011000                       # Cumulative time (in ticks) in various power states (Tick)
testsys.realview.generic_timer_mem.frames1.power_state.pwrStateResidencyTicks::UNDEFINED 617573011000                       # Cumulative time (in ticks) in various power states (Tick)
testsys.realview.generic_timer_mem.power_state.pwrStateResidencyTicks::UNDEFINED 617573011000                       # Cumulative time (in ticks) in various power states (Tick)
testsys.realview.gic.power_state.pwrStateResidencyTicks::UNDEFINED 617573011000                       # Cumulative time (in ticks) in various power states (Tick)
testsys.realview.gicv2m.power_state.pwrStateResidencyTicks::UNDEFINED 617573011000                       # Cumulative time (in ticks) in various power states (Tick)
testsys.realview.io_voltage.voltage          3.300000                       # Voltage in Volts (Volt)
testsys.realview.kmi0.power_state.pwrStateResidencyTicks::UNDEFINED 617573011000                       # Cumulative time (in ticks) in various power states (Tick)
testsys.realview.kmi1.power_state.pwrStateResidencyTicks::UNDEFINED 617573011000                       # Cumulative time (in ticks) in various power states (Tick)
testsys.realview.mcc.osc_clcd.clock             42105                       # Clock period in ticks (Tick)
testsys.realview.mcc.osc_mcc.clock              20000                       # Clock period in ticks (Tick)
testsys.realview.mcc.osc_peripheral.clock        41667                       # Clock period in ticks (Tick)
testsys.realview.mcc.osc_system_bus.clock        41667                       # Clock period in ticks (Tick)
testsys.realview.non_trusted_sram.power_state.pwrStateResidencyTicks::UNDEFINED 617573011000                       # Cumulative time (in ticks) in various power states (Tick)
testsys.realview.pci_host.power_state.pwrStateResidencyTicks::UNDEFINED 617573011000                       # Cumulative time (in ticks) in various power states (Tick)
testsys.realview.pwr_ctrl.power_state.pwrStateResidencyTicks::UNDEFINED 617573011000                       # Cumulative time (in ticks) in various power states (Tick)
testsys.realview.realview_io.power_state.pwrStateResidencyTicks::UNDEFINED 617573011000                       # Cumulative time (in ticks) in various power states (Tick)
testsys.realview.rtc.power_state.pwrStateResidencyTicks::UNDEFINED 617573011000                       # Cumulative time (in ticks) in various power states (Tick)
testsys.realview.system_watchdog.power_state.pwrStateResidencyTicks::UNDEFINED 617573011000                       # Cumulative time (in ticks) in various power states (Tick)
testsys.realview.trusted_sram.power_state.pwrStateResidencyTicks::UNDEFINED 617573011000                       # Cumulative time (in ticks) in various power states (Tick)
testsys.realview.trusted_watchdog.power_state.pwrStateResidencyTicks::UNDEFINED 617573011000                       # Cumulative time (in ticks) in various power states (Tick)
testsys.realview.uart0.power_state.pwrStateResidencyTicks::UNDEFINED 617573011000                       # Cumulative time (in ticks) in various power states (Tick)
testsys.realview.uart1.power_state.pwrStateResidencyTicks::UNDEFINED 617573011000                       # Cumulative time (in ticks) in various power states (Tick)
testsys.realview.uart2.power_state.pwrStateResidencyTicks::UNDEFINED 617573011000                       # Cumulative time (in ticks) in various power states (Tick)
testsys.realview.uart3.power_state.pwrStateResidencyTicks::UNDEFINED 617573011000                       # Cumulative time (in ticks) in various power states (Tick)
testsys.realview.vgic.power_state.pwrStateResidencyTicks::UNDEFINED 617573011000                       # Cumulative time (in ticks) in various power states (Tick)
testsys.realview.vio0.power_state.pwrStateResidencyTicks::UNDEFINED 617573011000                       # Cumulative time (in ticks) in various power states (Tick)
testsys.realview.vio1.power_state.pwrStateResidencyTicks::UNDEFINED 617573011000                       # Cumulative time (in ticks) in various power states (Tick)
testsys.realview.vram.power_state.pwrStateResidencyTicks::UNDEFINED 617573011000                       # Cumulative time (in ticks) in various power states (Tick)
testsys.realview.watchdog.power_state.pwrStateResidencyTicks::UNDEFINED 617573011000                       # Cumulative time (in ticks) in various power states (Tick)
testsys.voltage_domain.voltage                      1                       # Voltage in Volts (Volt)
testsys.workload.inst.arm                           0                       # number of arm instructions executed (Count)
testsys.workload.inst.quiesce                    1205                       # number of quiesce instructions executed (Count)

---------- End Simulation Statistics   ----------
