
---------- Begin Simulation Statistics ----------
simSeconds                                   0.456300                       # Number of seconds simulated (Second)
simTicks                                 456299984500                       # Number of ticks simulated (Tick)
finalTick                                787361519750                       # Number of ticks from beginning of simulation (restored from checkpoints and never reset) (Tick)
simFreq                                  1000000000000                       # The number of ticks per simulated second ((Tick/Second))
hostSeconds                                   2912.03                       # Real time elapsed on the host (Second)
hostTickRate                                156694740                       # The number of ticks simulated per host second (ticks/s) ((Tick/Second))
hostMemory                                    3001048                       # Number of bytes of host memory used (Byte)
simInsts                                   2060871877                       # Number of instructions simulated (Count)
simOps                                     2089367985                       # Number of ops (including micro ops) simulated (Count)
hostInstRate                                   707709                       # Simulator instruction rate (inst/s) ((Count/Second))
hostOpRate                                     717495                       # Simulator op (including micro ops) rate (op/s) ((Count/Second))
testsys.clk_domain.clock                         1000                       # Clock period in ticks (Tick)
testsys.cpu_cluster.clk_domain.clock              250                       # Clock period in ticks (Tick)
testsys.cpu_cluster.cpus0.numCycles        1825504784                       # Number of cpu cycles simulated (Cycle)
testsys.cpu_cluster.cpus0.numWorkItemsStarted            0                       # Number of work items this cpu started (Count)
testsys.cpu_cluster.cpus0.numWorkItemsCompleted            0                       # Number of work items this cpu completed (Count)
testsys.cpu_cluster.cpus0.exec_context.thread_0.numInsts      3104328                       # Number of instructions committed (Count)
testsys.cpu_cluster.cpus0.exec_context.thread_0.numOps      3484573                       # Number of ops (including micro ops) committed (Count)
testsys.cpu_cluster.cpus0.exec_context.thread_0.numIntAluAccesses      3115241                       # Number of integer alu accesses (Count)
testsys.cpu_cluster.cpus0.exec_context.thread_0.numFpAluAccesses            0                       # Number of float alu accesses (Count)
testsys.cpu_cluster.cpus0.exec_context.thread_0.numVecAluAccesses            0                       # Number of vector alu accesses (Count)
testsys.cpu_cluster.cpus0.exec_context.thread_0.numCallsReturns       253705                       # Number of times a function call or return occured (Count)
testsys.cpu_cluster.cpus0.exec_context.thread_0.numCondCtrlInsts       383282                       # Number of instructions that are conditional controls (Count)
testsys.cpu_cluster.cpus0.exec_context.thread_0.numIntInsts      3115241                       # Number of integer instructions (Count)
testsys.cpu_cluster.cpus0.exec_context.thread_0.numFpInsts            0                       # Number of float instructions (Count)
testsys.cpu_cluster.cpus0.exec_context.thread_0.numVecInsts            0                       # Number of vector instructions (Count)
testsys.cpu_cluster.cpus0.exec_context.thread_0.numIntRegReads      4328666                       # Number of times the integer registers were read (Count)
testsys.cpu_cluster.cpus0.exec_context.thread_0.numIntRegWrites      2632032                       # Number of times the integer registers were written (Count)
testsys.cpu_cluster.cpus0.exec_context.thread_0.numFpRegReads            0                       # Number of times the floating registers were read (Count)
testsys.cpu_cluster.cpus0.exec_context.thread_0.numFpRegWrites            0                       # Number of times the floating registers were written (Count)
testsys.cpu_cluster.cpus0.exec_context.thread_0.numVecRegReads            0                       # Number of times the vector registers were read (Count)
testsys.cpu_cluster.cpus0.exec_context.thread_0.numVecRegWrites            0                       # Number of times the vector registers were written (Count)
testsys.cpu_cluster.cpus0.exec_context.thread_0.numVecPredRegReads            0                       # Number of times the predicate registers were read (Count)
testsys.cpu_cluster.cpus0.exec_context.thread_0.numVecPredRegWrites            0                       # Number of times the predicate registers were written (Count)
testsys.cpu_cluster.cpus0.exec_context.thread_0.numCCRegReads       911118                       # Number of times the CC registers were read (Count)
testsys.cpu_cluster.cpus0.exec_context.thread_0.numCCRegWrites       902481                       # Number of times the CC registers were written (Count)
testsys.cpu_cluster.cpus0.exec_context.thread_0.numMemRefs       755470                       # Number of memory refs (Count)
testsys.cpu_cluster.cpus0.exec_context.thread_0.numLoadInsts       391963                       # Number of load instructions (Count)
testsys.cpu_cluster.cpus0.exec_context.thread_0.numStoreInsts       363507                       # Number of store instructions (Count)
testsys.cpu_cluster.cpus0.exec_context.thread_0.numIdleCycles 1822021081.147010                       # Number of idle cycles (Cycle)
testsys.cpu_cluster.cpus0.exec_context.thread_0.numBusyCycles 3483702.852990                       # Number of busy cycles (Cycle)
testsys.cpu_cluster.cpus0.exec_context.thread_0.notIdleFraction     0.001908                       # Percentage of non-idle cycles (Ratio)
testsys.cpu_cluster.cpus0.exec_context.thread_0.idleFraction     0.998092                       # Percentage of idle cycles (Ratio)
testsys.cpu_cluster.cpus0.exec_context.thread_0.numBranches       682245                       # Number of branches fetched (Count)
testsys.cpu_cluster.cpus0.exec_context.thread_0.statExecutedInstType::No_OpClass            0      0.00%      0.00% # Class of executed instruction. (Count)
testsys.cpu_cluster.cpus0.exec_context.thread_0.statExecutedInstType::IntAlu      2724572     78.19%     78.19% # Class of executed instruction. (Count)
testsys.cpu_cluster.cpus0.exec_context.thread_0.statExecutedInstType::IntMult         3562      0.10%     78.29% # Class of executed instruction. (Count)
testsys.cpu_cluster.cpus0.exec_context.thread_0.statExecutedInstType::IntDiv          969      0.03%     78.32% # Class of executed instruction. (Count)
testsys.cpu_cluster.cpus0.exec_context.thread_0.statExecutedInstType::FloatAdd            0      0.00%     78.32% # Class of executed instruction. (Count)
testsys.cpu_cluster.cpus0.exec_context.thread_0.statExecutedInstType::FloatCmp            0      0.00%     78.32% # Class of executed instruction. (Count)
testsys.cpu_cluster.cpus0.exec_context.thread_0.statExecutedInstType::FloatCvt            0      0.00%     78.32% # Class of executed instruction. (Count)
testsys.cpu_cluster.cpus0.exec_context.thread_0.statExecutedInstType::FloatMult            0      0.00%     78.32% # Class of executed instruction. (Count)
testsys.cpu_cluster.cpus0.exec_context.thread_0.statExecutedInstType::FloatMultAcc            0      0.00%     78.32% # Class of executed instruction. (Count)
testsys.cpu_cluster.cpus0.exec_context.thread_0.statExecutedInstType::FloatDiv            0      0.00%     78.32% # Class of executed instruction. (Count)
testsys.cpu_cluster.cpus0.exec_context.thread_0.statExecutedInstType::FloatMisc            0      0.00%     78.32% # Class of executed instruction. (Count)
testsys.cpu_cluster.cpus0.exec_context.thread_0.statExecutedInstType::FloatSqrt            0      0.00%     78.32% # Class of executed instruction. (Count)
testsys.cpu_cluster.cpus0.exec_context.thread_0.statExecutedInstType::SimdAdd            0      0.00%     78.32% # Class of executed instruction. (Count)
testsys.cpu_cluster.cpus0.exec_context.thread_0.statExecutedInstType::SimdAddAcc            0      0.00%     78.32% # Class of executed instruction. (Count)
testsys.cpu_cluster.cpus0.exec_context.thread_0.statExecutedInstType::SimdAlu            0      0.00%     78.32% # Class of executed instruction. (Count)
testsys.cpu_cluster.cpus0.exec_context.thread_0.statExecutedInstType::SimdCmp            0      0.00%     78.32% # Class of executed instruction. (Count)
testsys.cpu_cluster.cpus0.exec_context.thread_0.statExecutedInstType::SimdCvt            0      0.00%     78.32% # Class of executed instruction. (Count)
testsys.cpu_cluster.cpus0.exec_context.thread_0.statExecutedInstType::SimdMisc            0      0.00%     78.32% # Class of executed instruction. (Count)
testsys.cpu_cluster.cpus0.exec_context.thread_0.statExecutedInstType::SimdMult            0      0.00%     78.32% # Class of executed instruction. (Count)
testsys.cpu_cluster.cpus0.exec_context.thread_0.statExecutedInstType::SimdMultAcc            0      0.00%     78.32% # Class of executed instruction. (Count)
testsys.cpu_cluster.cpus0.exec_context.thread_0.statExecutedInstType::SimdShift            0      0.00%     78.32% # Class of executed instruction. (Count)
testsys.cpu_cluster.cpus0.exec_context.thread_0.statExecutedInstType::SimdShiftAcc            0      0.00%     78.32% # Class of executed instruction. (Count)
testsys.cpu_cluster.cpus0.exec_context.thread_0.statExecutedInstType::SimdDiv            0      0.00%     78.32% # Class of executed instruction. (Count)
testsys.cpu_cluster.cpus0.exec_context.thread_0.statExecutedInstType::SimdSqrt            0      0.00%     78.32% # Class of executed instruction. (Count)
testsys.cpu_cluster.cpus0.exec_context.thread_0.statExecutedInstType::SimdFloatAdd            0      0.00%     78.32% # Class of executed instruction. (Count)
testsys.cpu_cluster.cpus0.exec_context.thread_0.statExecutedInstType::SimdFloatAlu            0      0.00%     78.32% # Class of executed instruction. (Count)
testsys.cpu_cluster.cpus0.exec_context.thread_0.statExecutedInstType::SimdFloatCmp            0      0.00%     78.32% # Class of executed instruction. (Count)
testsys.cpu_cluster.cpus0.exec_context.thread_0.statExecutedInstType::SimdFloatCvt            0      0.00%     78.32% # Class of executed instruction. (Count)
testsys.cpu_cluster.cpus0.exec_context.thread_0.statExecutedInstType::SimdFloatDiv            0      0.00%     78.32% # Class of executed instruction. (Count)
testsys.cpu_cluster.cpus0.exec_context.thread_0.statExecutedInstType::SimdFloatMisc            0      0.00%     78.32% # Class of executed instruction. (Count)
testsys.cpu_cluster.cpus0.exec_context.thread_0.statExecutedInstType::SimdFloatMult            0      0.00%     78.32% # Class of executed instruction. (Count)
testsys.cpu_cluster.cpus0.exec_context.thread_0.statExecutedInstType::SimdFloatMultAcc            0      0.00%     78.32% # Class of executed instruction. (Count)
testsys.cpu_cluster.cpus0.exec_context.thread_0.statExecutedInstType::SimdFloatSqrt            0      0.00%     78.32% # Class of executed instruction. (Count)
testsys.cpu_cluster.cpus0.exec_context.thread_0.statExecutedInstType::SimdReduceAdd            0      0.00%     78.32% # Class of executed instruction. (Count)
testsys.cpu_cluster.cpus0.exec_context.thread_0.statExecutedInstType::SimdReduceAlu            0      0.00%     78.32% # Class of executed instruction. (Count)
testsys.cpu_cluster.cpus0.exec_context.thread_0.statExecutedInstType::SimdReduceCmp            0      0.00%     78.32% # Class of executed instruction. (Count)
testsys.cpu_cluster.cpus0.exec_context.thread_0.statExecutedInstType::SimdFloatReduceAdd            0      0.00%     78.32% # Class of executed instruction. (Count)
testsys.cpu_cluster.cpus0.exec_context.thread_0.statExecutedInstType::SimdFloatReduceCmp            0      0.00%     78.32% # Class of executed instruction. (Count)
testsys.cpu_cluster.cpus0.exec_context.thread_0.statExecutedInstType::SimdAes            0      0.00%     78.32% # Class of executed instruction. (Count)
testsys.cpu_cluster.cpus0.exec_context.thread_0.statExecutedInstType::SimdAesMix            0      0.00%     78.32% # Class of executed instruction. (Count)
testsys.cpu_cluster.cpus0.exec_context.thread_0.statExecutedInstType::SimdSha1Hash            0      0.00%     78.32% # Class of executed instruction. (Count)
testsys.cpu_cluster.cpus0.exec_context.thread_0.statExecutedInstType::SimdSha1Hash2            0      0.00%     78.32% # Class of executed instruction. (Count)
testsys.cpu_cluster.cpus0.exec_context.thread_0.statExecutedInstType::SimdSha256Hash            0      0.00%     78.32% # Class of executed instruction. (Count)
testsys.cpu_cluster.cpus0.exec_context.thread_0.statExecutedInstType::SimdSha256Hash2            0      0.00%     78.32% # Class of executed instruction. (Count)
testsys.cpu_cluster.cpus0.exec_context.thread_0.statExecutedInstType::SimdShaSigma2            0      0.00%     78.32% # Class of executed instruction. (Count)
testsys.cpu_cluster.cpus0.exec_context.thread_0.statExecutedInstType::SimdShaSigma3            0      0.00%     78.32% # Class of executed instruction. (Count)
testsys.cpu_cluster.cpus0.exec_context.thread_0.statExecutedInstType::SimdPredAlu            0      0.00%     78.32% # Class of executed instruction. (Count)
testsys.cpu_cluster.cpus0.exec_context.thread_0.statExecutedInstType::MemRead       391963     11.25%     89.57% # Class of executed instruction. (Count)
testsys.cpu_cluster.cpus0.exec_context.thread_0.statExecutedInstType::MemWrite       363507     10.43%    100.00% # Class of executed instruction. (Count)
testsys.cpu_cluster.cpus0.exec_context.thread_0.statExecutedInstType::FloatMemRead            0      0.00%    100.00% # Class of executed instruction. (Count)
testsys.cpu_cluster.cpus0.exec_context.thread_0.statExecutedInstType::FloatMemWrite            0      0.00%    100.00% # Class of executed instruction. (Count)
testsys.cpu_cluster.cpus0.exec_context.thread_0.statExecutedInstType::IprAccess            0      0.00%    100.00% # Class of executed instruction. (Count)
testsys.cpu_cluster.cpus0.exec_context.thread_0.statExecutedInstType::InstPrefetch            0      0.00%    100.00% # Class of executed instruction. (Count)
testsys.cpu_cluster.cpus0.exec_context.thread_0.statExecutedInstType::total      3484573                       # Class of executed instruction. (Count)
testsys.cpu_cluster.cpus0.mmu.dtb.instHits            0                       # ITB inst hits (Count)
testsys.cpu_cluster.cpus0.mmu.dtb.instMisses            0                       # ITB inst misses (Count)
testsys.cpu_cluster.cpus0.mmu.dtb.readHits       391479                       # DTB read hits (Count)
testsys.cpu_cluster.cpus0.mmu.dtb.readMisses          555                       # DTB read misses (Count)
testsys.cpu_cluster.cpus0.mmu.dtb.writeHits       363427                       # DTB write hits (Count)
testsys.cpu_cluster.cpus0.mmu.dtb.writeMisses           80                       # DTB write misses (Count)
testsys.cpu_cluster.cpus0.mmu.dtb.inserts          635                       # Number of times an entry is inserted into the TLB (Count)
testsys.cpu_cluster.cpus0.mmu.dtb.flushTlb            0                       # Number of times complete TLB was flushed (Count)
testsys.cpu_cluster.cpus0.mmu.dtb.flushTlbMva            0                       # Number of times TLB was flushed by MVA (Count)
testsys.cpu_cluster.cpus0.mmu.dtb.flushTlbMvaAsid           78                       # Number of times TLB was flushed by MVA & ASID (Count)
testsys.cpu_cluster.cpus0.mmu.dtb.flushTlbAsid            6                       # Number of times TLB was flushed by ASID (Count)
testsys.cpu_cluster.cpus0.mmu.dtb.flushedEntries            0                       # Number of entries that have been flushed from TLB (Count)
testsys.cpu_cluster.cpus0.mmu.dtb.alignFaults            0                       # Number of TLB faults due to alignment restrictions (Count)
testsys.cpu_cluster.cpus0.mmu.dtb.prefetchFaults            0                       # Number of TLB faults due to prefetch (Count)
testsys.cpu_cluster.cpus0.mmu.dtb.domainFaults            0                       # Number of TLB faults due to domain restrictions (Count)
testsys.cpu_cluster.cpus0.mmu.dtb.permsFaults            0                       # Number of TLB faults due to permissions restrictions (Count)
testsys.cpu_cluster.cpus0.mmu.dtb.readAccesses       392034                       # DTB read accesses (Count)
testsys.cpu_cluster.cpus0.mmu.dtb.writeAccesses       363507                       # DTB write accesses (Count)
testsys.cpu_cluster.cpus0.mmu.dtb.instAccesses            0                       # ITB inst accesses (Count)
testsys.cpu_cluster.cpus0.mmu.dtb.hits         754906                       # Total TLB (inst and data) hits (Count)
testsys.cpu_cluster.cpus0.mmu.dtb.misses          635                       # Total TLB (inst and data) misses (Count)
testsys.cpu_cluster.cpus0.mmu.dtb.accesses       755541                       # Total TLB (inst and data) accesses (Count)
testsys.cpu_cluster.cpus0.mmu.dtb_walker.walks          635                       # Table walker walks requested (Count)
testsys.cpu_cluster.cpus0.mmu.dtb_walker.walksLongDescriptor          635                       # Table walker walks initiated with long descriptors (Count)
testsys.cpu_cluster.cpus0.mmu.dtb_walker.walkWaitTime::samples          635                       # Table walker wait (enqueue to first request) latency (Tick)
testsys.cpu_cluster.cpus0.mmu.dtb_walker.walkWaitTime::0          635    100.00%    100.00% # Table walker wait (enqueue to first request) latency (Tick)
testsys.cpu_cluster.cpus0.mmu.dtb_walker.walkWaitTime::total          635                       # Table walker wait (enqueue to first request) latency (Tick)
testsys.cpu_cluster.cpus0.mmu.dtb_walker.pageSizes::4KiB          621     97.80%     97.80% # Table walker page sizes translated (Count)
testsys.cpu_cluster.cpus0.mmu.dtb_walker.pageSizes::2MiB           14      2.20%    100.00% # Table walker page sizes translated (Count)
testsys.cpu_cluster.cpus0.mmu.dtb_walker.pageSizes::total          635                       # Table walker page sizes translated (Count)
testsys.cpu_cluster.cpus0.mmu.dtb_walker.requestOrigin_Requested::Data          635                       # Table walker requests started/completed, data/inst (Count)
testsys.cpu_cluster.cpus0.mmu.dtb_walker.requestOrigin_Requested::Inst            0                       # Table walker requests started/completed, data/inst (Count)
testsys.cpu_cluster.cpus0.mmu.dtb_walker.requestOrigin_Requested::total          635                       # Table walker requests started/completed, data/inst (Count)
testsys.cpu_cluster.cpus0.mmu.dtb_walker.requestOrigin_Completed::Data          635                       # Table walker requests started/completed, data/inst (Count)
testsys.cpu_cluster.cpus0.mmu.dtb_walker.requestOrigin_Completed::Inst            0                       # Table walker requests started/completed, data/inst (Count)
testsys.cpu_cluster.cpus0.mmu.dtb_walker.requestOrigin_Completed::total          635                       # Table walker requests started/completed, data/inst (Count)
testsys.cpu_cluster.cpus0.mmu.dtb_walker.requestOrigin::total         1270                       # Table walker requests started/completed, data/inst (Count)
testsys.cpu_cluster.cpus0.mmu.dtb_walker.power_state.pwrStateResidencyTicks::UNDEFINED 787361519750                       # Cumulative time (in ticks) in various power states (Tick)
testsys.cpu_cluster.cpus0.mmu.itb.instHits      3104172                       # ITB inst hits (Count)
testsys.cpu_cluster.cpus0.mmu.itb.instMisses          156                       # ITB inst misses (Count)
testsys.cpu_cluster.cpus0.mmu.itb.readHits            0                       # DTB read hits (Count)
testsys.cpu_cluster.cpus0.mmu.itb.readMisses            0                       # DTB read misses (Count)
testsys.cpu_cluster.cpus0.mmu.itb.writeHits            0                       # DTB write hits (Count)
testsys.cpu_cluster.cpus0.mmu.itb.writeMisses            0                       # DTB write misses (Count)
testsys.cpu_cluster.cpus0.mmu.itb.inserts          156                       # Number of times an entry is inserted into the TLB (Count)
testsys.cpu_cluster.cpus0.mmu.itb.flushTlb            0                       # Number of times complete TLB was flushed (Count)
testsys.cpu_cluster.cpus0.mmu.itb.flushTlbMva            0                       # Number of times TLB was flushed by MVA (Count)
testsys.cpu_cluster.cpus0.mmu.itb.flushTlbMvaAsid           78                       # Number of times TLB was flushed by MVA & ASID (Count)
testsys.cpu_cluster.cpus0.mmu.itb.flushTlbAsid            6                       # Number of times TLB was flushed by ASID (Count)
testsys.cpu_cluster.cpus0.mmu.itb.flushedEntries            0                       # Number of entries that have been flushed from TLB (Count)
testsys.cpu_cluster.cpus0.mmu.itb.alignFaults            0                       # Number of TLB faults due to alignment restrictions (Count)
testsys.cpu_cluster.cpus0.mmu.itb.prefetchFaults            0                       # Number of TLB faults due to prefetch (Count)
testsys.cpu_cluster.cpus0.mmu.itb.domainFaults            0                       # Number of TLB faults due to domain restrictions (Count)
testsys.cpu_cluster.cpus0.mmu.itb.permsFaults            0                       # Number of TLB faults due to permissions restrictions (Count)
testsys.cpu_cluster.cpus0.mmu.itb.readAccesses            0                       # DTB read accesses (Count)
testsys.cpu_cluster.cpus0.mmu.itb.writeAccesses            0                       # DTB write accesses (Count)
testsys.cpu_cluster.cpus0.mmu.itb.instAccesses      3104328                       # ITB inst accesses (Count)
testsys.cpu_cluster.cpus0.mmu.itb.hits        3104172                       # Total TLB (inst and data) hits (Count)
testsys.cpu_cluster.cpus0.mmu.itb.misses          156                       # Total TLB (inst and data) misses (Count)
testsys.cpu_cluster.cpus0.mmu.itb.accesses      3104328                       # Total TLB (inst and data) accesses (Count)
testsys.cpu_cluster.cpus0.mmu.itb_walker.walks          156                       # Table walker walks requested (Count)
testsys.cpu_cluster.cpus0.mmu.itb_walker.walksLongDescriptor          156                       # Table walker walks initiated with long descriptors (Count)
testsys.cpu_cluster.cpus0.mmu.itb_walker.walkWaitTime::samples          156                       # Table walker wait (enqueue to first request) latency (Tick)
testsys.cpu_cluster.cpus0.mmu.itb_walker.walkWaitTime::0          156    100.00%    100.00% # Table walker wait (enqueue to first request) latency (Tick)
testsys.cpu_cluster.cpus0.mmu.itb_walker.walkWaitTime::total          156                       # Table walker wait (enqueue to first request) latency (Tick)
testsys.cpu_cluster.cpus0.mmu.itb_walker.pageSizes::4KiB          153     98.08%     98.08% # Table walker page sizes translated (Count)
testsys.cpu_cluster.cpus0.mmu.itb_walker.pageSizes::2MiB            3      1.92%    100.00% # Table walker page sizes translated (Count)
testsys.cpu_cluster.cpus0.mmu.itb_walker.pageSizes::total          156                       # Table walker page sizes translated (Count)
testsys.cpu_cluster.cpus0.mmu.itb_walker.requestOrigin_Requested::Data            0                       # Table walker requests started/completed, data/inst (Count)
testsys.cpu_cluster.cpus0.mmu.itb_walker.requestOrigin_Requested::Inst          156                       # Table walker requests started/completed, data/inst (Count)
testsys.cpu_cluster.cpus0.mmu.itb_walker.requestOrigin_Requested::total          156                       # Table walker requests started/completed, data/inst (Count)
testsys.cpu_cluster.cpus0.mmu.itb_walker.requestOrigin_Completed::Data            0                       # Table walker requests started/completed, data/inst (Count)
testsys.cpu_cluster.cpus0.mmu.itb_walker.requestOrigin_Completed::Inst          156                       # Table walker requests started/completed, data/inst (Count)
testsys.cpu_cluster.cpus0.mmu.itb_walker.requestOrigin_Completed::total          156                       # Table walker requests started/completed, data/inst (Count)
testsys.cpu_cluster.cpus0.mmu.itb_walker.requestOrigin::total          312                       # Table walker requests started/completed, data/inst (Count)
testsys.cpu_cluster.cpus0.mmu.itb_walker.power_state.pwrStateResidencyTicks::UNDEFINED 787361519750                       # Cumulative time (in ticks) in various power states (Tick)
testsys.cpu_cluster.cpus0.mmu.stage2_dtb.instHits            0                       # ITB inst hits (Count)
testsys.cpu_cluster.cpus0.mmu.stage2_dtb.instMisses            0                       # ITB inst misses (Count)
testsys.cpu_cluster.cpus0.mmu.stage2_dtb.readHits            0                       # DTB read hits (Count)
testsys.cpu_cluster.cpus0.mmu.stage2_dtb.readMisses            0                       # DTB read misses (Count)
testsys.cpu_cluster.cpus0.mmu.stage2_dtb.writeHits            0                       # DTB write hits (Count)
testsys.cpu_cluster.cpus0.mmu.stage2_dtb.writeMisses            0                       # DTB write misses (Count)
testsys.cpu_cluster.cpus0.mmu.stage2_dtb.inserts            0                       # Number of times an entry is inserted into the TLB (Count)
testsys.cpu_cluster.cpus0.mmu.stage2_dtb.flushTlb            0                       # Number of times complete TLB was flushed (Count)
testsys.cpu_cluster.cpus0.mmu.stage2_dtb.flushTlbMva            0                       # Number of times TLB was flushed by MVA (Count)
testsys.cpu_cluster.cpus0.mmu.stage2_dtb.flushTlbMvaAsid            0                       # Number of times TLB was flushed by MVA & ASID (Count)
testsys.cpu_cluster.cpus0.mmu.stage2_dtb.flushTlbAsid            0                       # Number of times TLB was flushed by ASID (Count)
testsys.cpu_cluster.cpus0.mmu.stage2_dtb.flushedEntries            0                       # Number of entries that have been flushed from TLB (Count)
testsys.cpu_cluster.cpus0.mmu.stage2_dtb.alignFaults            0                       # Number of TLB faults due to alignment restrictions (Count)
testsys.cpu_cluster.cpus0.mmu.stage2_dtb.prefetchFaults            0                       # Number of TLB faults due to prefetch (Count)
testsys.cpu_cluster.cpus0.mmu.stage2_dtb.domainFaults            0                       # Number of TLB faults due to domain restrictions (Count)
testsys.cpu_cluster.cpus0.mmu.stage2_dtb.permsFaults            0                       # Number of TLB faults due to permissions restrictions (Count)
testsys.cpu_cluster.cpus0.mmu.stage2_dtb.readAccesses            0                       # DTB read accesses (Count)
testsys.cpu_cluster.cpus0.mmu.stage2_dtb.writeAccesses            0                       # DTB write accesses (Count)
testsys.cpu_cluster.cpus0.mmu.stage2_dtb.instAccesses            0                       # ITB inst accesses (Count)
testsys.cpu_cluster.cpus0.mmu.stage2_dtb.hits            0                       # Total TLB (inst and data) hits (Count)
testsys.cpu_cluster.cpus0.mmu.stage2_dtb.misses            0                       # Total TLB (inst and data) misses (Count)
testsys.cpu_cluster.cpus0.mmu.stage2_dtb.accesses            0                       # Total TLB (inst and data) accesses (Count)
testsys.cpu_cluster.cpus0.mmu.stage2_dtb_walker.walks            0                       # Table walker walks requested (Count)
testsys.cpu_cluster.cpus0.mmu.stage2_dtb_walker.requestOrigin_Requested::Data            0                       # Table walker requests started/completed, data/inst (Count)
testsys.cpu_cluster.cpus0.mmu.stage2_dtb_walker.requestOrigin_Requested::Inst            0                       # Table walker requests started/completed, data/inst (Count)
testsys.cpu_cluster.cpus0.mmu.stage2_dtb_walker.requestOrigin_Requested::total            0                       # Table walker requests started/completed, data/inst (Count)
testsys.cpu_cluster.cpus0.mmu.stage2_dtb_walker.requestOrigin_Completed::Data            0                       # Table walker requests started/completed, data/inst (Count)
testsys.cpu_cluster.cpus0.mmu.stage2_dtb_walker.requestOrigin_Completed::Inst            0                       # Table walker requests started/completed, data/inst (Count)
testsys.cpu_cluster.cpus0.mmu.stage2_dtb_walker.requestOrigin_Completed::total            0                       # Table walker requests started/completed, data/inst (Count)
testsys.cpu_cluster.cpus0.mmu.stage2_dtb_walker.requestOrigin::total            0                       # Table walker requests started/completed, data/inst (Count)
testsys.cpu_cluster.cpus0.mmu.stage2_dtb_walker.power_state.pwrStateResidencyTicks::UNDEFINED 787361519750                       # Cumulative time (in ticks) in various power states (Tick)
testsys.cpu_cluster.cpus0.mmu.stage2_itb.instHits            0                       # ITB inst hits (Count)
testsys.cpu_cluster.cpus0.mmu.stage2_itb.instMisses            0                       # ITB inst misses (Count)
testsys.cpu_cluster.cpus0.mmu.stage2_itb.readHits            0                       # DTB read hits (Count)
testsys.cpu_cluster.cpus0.mmu.stage2_itb.readMisses            0                       # DTB read misses (Count)
testsys.cpu_cluster.cpus0.mmu.stage2_itb.writeHits            0                       # DTB write hits (Count)
testsys.cpu_cluster.cpus0.mmu.stage2_itb.writeMisses            0                       # DTB write misses (Count)
testsys.cpu_cluster.cpus0.mmu.stage2_itb.inserts            0                       # Number of times an entry is inserted into the TLB (Count)
testsys.cpu_cluster.cpus0.mmu.stage2_itb.flushTlb            0                       # Number of times complete TLB was flushed (Count)
testsys.cpu_cluster.cpus0.mmu.stage2_itb.flushTlbMva            0                       # Number of times TLB was flushed by MVA (Count)
testsys.cpu_cluster.cpus0.mmu.stage2_itb.flushTlbMvaAsid            0                       # Number of times TLB was flushed by MVA & ASID (Count)
testsys.cpu_cluster.cpus0.mmu.stage2_itb.flushTlbAsid            0                       # Number of times TLB was flushed by ASID (Count)
testsys.cpu_cluster.cpus0.mmu.stage2_itb.flushedEntries            0                       # Number of entries that have been flushed from TLB (Count)
testsys.cpu_cluster.cpus0.mmu.stage2_itb.alignFaults            0                       # Number of TLB faults due to alignment restrictions (Count)
testsys.cpu_cluster.cpus0.mmu.stage2_itb.prefetchFaults            0                       # Number of TLB faults due to prefetch (Count)
testsys.cpu_cluster.cpus0.mmu.stage2_itb.domainFaults            0                       # Number of TLB faults due to domain restrictions (Count)
testsys.cpu_cluster.cpus0.mmu.stage2_itb.permsFaults            0                       # Number of TLB faults due to permissions restrictions (Count)
testsys.cpu_cluster.cpus0.mmu.stage2_itb.readAccesses            0                       # DTB read accesses (Count)
testsys.cpu_cluster.cpus0.mmu.stage2_itb.writeAccesses            0                       # DTB write accesses (Count)
testsys.cpu_cluster.cpus0.mmu.stage2_itb.instAccesses            0                       # ITB inst accesses (Count)
testsys.cpu_cluster.cpus0.mmu.stage2_itb.hits            0                       # Total TLB (inst and data) hits (Count)
testsys.cpu_cluster.cpus0.mmu.stage2_itb.misses            0                       # Total TLB (inst and data) misses (Count)
testsys.cpu_cluster.cpus0.mmu.stage2_itb.accesses            0                       # Total TLB (inst and data) accesses (Count)
testsys.cpu_cluster.cpus0.mmu.stage2_itb_walker.walks            0                       # Table walker walks requested (Count)
testsys.cpu_cluster.cpus0.mmu.stage2_itb_walker.requestOrigin_Requested::Data            0                       # Table walker requests started/completed, data/inst (Count)
testsys.cpu_cluster.cpus0.mmu.stage2_itb_walker.requestOrigin_Requested::Inst            0                       # Table walker requests started/completed, data/inst (Count)
testsys.cpu_cluster.cpus0.mmu.stage2_itb_walker.requestOrigin_Requested::total            0                       # Table walker requests started/completed, data/inst (Count)
testsys.cpu_cluster.cpus0.mmu.stage2_itb_walker.requestOrigin_Completed::Data            0                       # Table walker requests started/completed, data/inst (Count)
testsys.cpu_cluster.cpus0.mmu.stage2_itb_walker.requestOrigin_Completed::Inst            0                       # Table walker requests started/completed, data/inst (Count)
testsys.cpu_cluster.cpus0.mmu.stage2_itb_walker.requestOrigin_Completed::total            0                       # Table walker requests started/completed, data/inst (Count)
testsys.cpu_cluster.cpus0.mmu.stage2_itb_walker.requestOrigin::total            0                       # Table walker requests started/completed, data/inst (Count)
testsys.cpu_cluster.cpus0.mmu.stage2_itb_walker.power_state.pwrStateResidencyTicks::UNDEFINED 787361519750                       # Cumulative time (in ticks) in various power states (Tick)
testsys.cpu_cluster.cpus0.power_state.numTransitions         5708                       # Number of power state transitions (Count)
testsys.cpu_cluster.cpus0.power_state.ticksClkGated::samples         2855                       # Distribution of time spent in the clock gated state (Tick)
testsys.cpu_cluster.cpus0.power_state.ticksClkGated::mean 159551987.732049                       # Distribution of time spent in the clock gated state (Tick)
testsys.cpu_cluster.cpus0.power_state.ticksClkGated::stdev 18494312.228979                       # Distribution of time spent in the clock gated state (Tick)
testsys.cpu_cluster.cpus0.power_state.ticksClkGated::underflows            3      0.11%      0.11% # Distribution of time spent in the clock gated state (Tick)
testsys.cpu_cluster.cpus0.power_state.ticksClkGated::1000-5e+10         2852     99.89%    100.00% # Distribution of time spent in the clock gated state (Tick)
testsys.cpu_cluster.cpus0.power_state.ticksClkGated::min_value          251                       # Distribution of time spent in the clock gated state (Tick)
testsys.cpu_cluster.cpus0.power_state.ticksClkGated::max_value    162671156                       # Distribution of time spent in the clock gated state (Tick)
testsys.cpu_cluster.cpus0.power_state.ticksClkGated::total         2855                       # Distribution of time spent in the clock gated state (Tick)
testsys.cpu_cluster.cpus0.power_state.pwrStateResidencyTicks::ON    870780275                       # Cumulative time (in ticks) in various power states (Tick)
testsys.cpu_cluster.cpus0.power_state.pwrStateResidencyTicks::CLK_GATED 455520924975                       # Cumulative time (in ticks) in various power states (Tick)
testsys.cpu_cluster.cpus0.thread_0.numInsts            0                       # Number of Instructions committed (Count)
testsys.cpu_cluster.cpus0.thread_0.numOps            0                       # Number of Ops committed (Count)
testsys.cpu_cluster.cpus0.thread_0.numMemRefs            0                       # Number of Memory References (Count)
testsys.cpu_cluster.cpus1.numCycles        1825569645                       # Number of cpu cycles simulated (Cycle)
testsys.cpu_cluster.cpus1.numWorkItemsStarted            0                       # Number of work items this cpu started (Count)
testsys.cpu_cluster.cpus1.numWorkItemsCompleted            0                       # Number of work items this cpu completed (Count)
testsys.cpu_cluster.cpus1.exec_context.thread_0.numInsts      3519079                       # Number of instructions committed (Count)
testsys.cpu_cluster.cpus1.exec_context.thread_0.numOps      3974569                       # Number of ops (including micro ops) committed (Count)
testsys.cpu_cluster.cpus1.exec_context.thread_0.numIntAluAccesses      3575485                       # Number of integer alu accesses (Count)
testsys.cpu_cluster.cpus1.exec_context.thread_0.numFpAluAccesses            0                       # Number of float alu accesses (Count)
testsys.cpu_cluster.cpus1.exec_context.thread_0.numVecAluAccesses          893                       # Number of vector alu accesses (Count)
testsys.cpu_cluster.cpus1.exec_context.thread_0.numCallsReturns       266132                       # Number of times a function call or return occured (Count)
testsys.cpu_cluster.cpus1.exec_context.thread_0.numCondCtrlInsts       439004                       # Number of instructions that are conditional controls (Count)
testsys.cpu_cluster.cpus1.exec_context.thread_0.numIntInsts      3575485                       # Number of integer instructions (Count)
testsys.cpu_cluster.cpus1.exec_context.thread_0.numFpInsts            0                       # Number of float instructions (Count)
testsys.cpu_cluster.cpus1.exec_context.thread_0.numVecInsts          893                       # Number of vector instructions (Count)
testsys.cpu_cluster.cpus1.exec_context.thread_0.numIntRegReads      4984120                       # Number of times the integer registers were read (Count)
testsys.cpu_cluster.cpus1.exec_context.thread_0.numIntRegWrites      3006796                       # Number of times the integer registers were written (Count)
testsys.cpu_cluster.cpus1.exec_context.thread_0.numFpRegReads            0                       # Number of times the floating registers were read (Count)
testsys.cpu_cluster.cpus1.exec_context.thread_0.numFpRegWrites            0                       # Number of times the floating registers were written (Count)
testsys.cpu_cluster.cpus1.exec_context.thread_0.numVecRegReads          728                       # Number of times the vector registers were read (Count)
testsys.cpu_cluster.cpus1.exec_context.thread_0.numVecRegWrites          195                       # Number of times the vector registers were written (Count)
testsys.cpu_cluster.cpus1.exec_context.thread_0.numVecPredRegReads            0                       # Number of times the predicate registers were read (Count)
testsys.cpu_cluster.cpus1.exec_context.thread_0.numVecPredRegWrites            0                       # Number of times the predicate registers were written (Count)
testsys.cpu_cluster.cpus1.exec_context.thread_0.numCCRegReads      1015875                       # Number of times the CC registers were read (Count)
testsys.cpu_cluster.cpus1.exec_context.thread_0.numCCRegWrites      1004637                       # Number of times the CC registers were written (Count)
testsys.cpu_cluster.cpus1.exec_context.thread_0.numMemRefs       922868                       # Number of memory refs (Count)
testsys.cpu_cluster.cpus1.exec_context.thread_0.numLoadInsts       488953                       # Number of load instructions (Count)
testsys.cpu_cluster.cpus1.exec_context.thread_0.numStoreInsts       433915                       # Number of store instructions (Count)
testsys.cpu_cluster.cpus1.exec_context.thread_0.numIdleCycles 1821595585.241458                       # Number of idle cycles (Cycle)
testsys.cpu_cluster.cpus1.exec_context.thread_0.numBusyCycles 3974059.758542                       # Number of busy cycles (Cycle)
testsys.cpu_cluster.cpus1.exec_context.thread_0.notIdleFraction     0.002177                       # Percentage of non-idle cycles (Ratio)
testsys.cpu_cluster.cpus1.exec_context.thread_0.idleFraction     0.997823                       # Percentage of idle cycles (Ratio)
testsys.cpu_cluster.cpus1.exec_context.thread_0.numBranches       752211                       # Number of branches fetched (Count)
testsys.cpu_cluster.cpus1.exec_context.thread_0.statExecutedInstType::No_OpClass          345      0.01%      0.01% # Class of executed instruction. (Count)
testsys.cpu_cluster.cpus1.exec_context.thread_0.statExecutedInstType::IntAlu      3046698     76.65%     76.66% # Class of executed instruction. (Count)
testsys.cpu_cluster.cpus1.exec_context.thread_0.statExecutedInstType::IntMult         4219      0.11%     76.77% # Class of executed instruction. (Count)
testsys.cpu_cluster.cpus1.exec_context.thread_0.statExecutedInstType::IntDiv          462      0.01%     76.78% # Class of executed instruction. (Count)
testsys.cpu_cluster.cpus1.exec_context.thread_0.statExecutedInstType::FloatAdd            0      0.00%     76.78% # Class of executed instruction. (Count)
testsys.cpu_cluster.cpus1.exec_context.thread_0.statExecutedInstType::FloatCmp            0      0.00%     76.78% # Class of executed instruction. (Count)
testsys.cpu_cluster.cpus1.exec_context.thread_0.statExecutedInstType::FloatCvt            0      0.00%     76.78% # Class of executed instruction. (Count)
testsys.cpu_cluster.cpus1.exec_context.thread_0.statExecutedInstType::FloatMult            0      0.00%     76.78% # Class of executed instruction. (Count)
testsys.cpu_cluster.cpus1.exec_context.thread_0.statExecutedInstType::FloatMultAcc            0      0.00%     76.78% # Class of executed instruction. (Count)
testsys.cpu_cluster.cpus1.exec_context.thread_0.statExecutedInstType::FloatDiv            0      0.00%     76.78% # Class of executed instruction. (Count)
testsys.cpu_cluster.cpus1.exec_context.thread_0.statExecutedInstType::FloatMisc           33      0.00%     76.78% # Class of executed instruction. (Count)
testsys.cpu_cluster.cpus1.exec_context.thread_0.statExecutedInstType::FloatSqrt            0      0.00%     76.78% # Class of executed instruction. (Count)
testsys.cpu_cluster.cpus1.exec_context.thread_0.statExecutedInstType::SimdAdd            5      0.00%     76.78% # Class of executed instruction. (Count)
testsys.cpu_cluster.cpus1.exec_context.thread_0.statExecutedInstType::SimdAddAcc            0      0.00%     76.78% # Class of executed instruction. (Count)
testsys.cpu_cluster.cpus1.exec_context.thread_0.statExecutedInstType::SimdAlu            4      0.00%     76.78% # Class of executed instruction. (Count)
testsys.cpu_cluster.cpus1.exec_context.thread_0.statExecutedInstType::SimdCmp            4      0.00%     76.78% # Class of executed instruction. (Count)
testsys.cpu_cluster.cpus1.exec_context.thread_0.statExecutedInstType::SimdCvt            0      0.00%     76.78% # Class of executed instruction. (Count)
testsys.cpu_cluster.cpus1.exec_context.thread_0.statExecutedInstType::SimdMisc           16      0.00%     76.78% # Class of executed instruction. (Count)
testsys.cpu_cluster.cpus1.exec_context.thread_0.statExecutedInstType::SimdMult            0      0.00%     76.78% # Class of executed instruction. (Count)
testsys.cpu_cluster.cpus1.exec_context.thread_0.statExecutedInstType::SimdMultAcc            0      0.00%     76.78% # Class of executed instruction. (Count)
testsys.cpu_cluster.cpus1.exec_context.thread_0.statExecutedInstType::SimdShift            0      0.00%     76.78% # Class of executed instruction. (Count)
testsys.cpu_cluster.cpus1.exec_context.thread_0.statExecutedInstType::SimdShiftAcc            0      0.00%     76.78% # Class of executed instruction. (Count)
testsys.cpu_cluster.cpus1.exec_context.thread_0.statExecutedInstType::SimdDiv            0      0.00%     76.78% # Class of executed instruction. (Count)
testsys.cpu_cluster.cpus1.exec_context.thread_0.statExecutedInstType::SimdSqrt            0      0.00%     76.78% # Class of executed instruction. (Count)
testsys.cpu_cluster.cpus1.exec_context.thread_0.statExecutedInstType::SimdFloatAdd            0      0.00%     76.78% # Class of executed instruction. (Count)
testsys.cpu_cluster.cpus1.exec_context.thread_0.statExecutedInstType::SimdFloatAlu            0      0.00%     76.78% # Class of executed instruction. (Count)
testsys.cpu_cluster.cpus1.exec_context.thread_0.statExecutedInstType::SimdFloatCmp            0      0.00%     76.78% # Class of executed instruction. (Count)
testsys.cpu_cluster.cpus1.exec_context.thread_0.statExecutedInstType::SimdFloatCvt            0      0.00%     76.78% # Class of executed instruction. (Count)
testsys.cpu_cluster.cpus1.exec_context.thread_0.statExecutedInstType::SimdFloatDiv            0      0.00%     76.78% # Class of executed instruction. (Count)
testsys.cpu_cluster.cpus1.exec_context.thread_0.statExecutedInstType::SimdFloatMisc            0      0.00%     76.78% # Class of executed instruction. (Count)
testsys.cpu_cluster.cpus1.exec_context.thread_0.statExecutedInstType::SimdFloatMult            0      0.00%     76.78% # Class of executed instruction. (Count)
testsys.cpu_cluster.cpus1.exec_context.thread_0.statExecutedInstType::SimdFloatMultAcc            0      0.00%     76.78% # Class of executed instruction. (Count)
testsys.cpu_cluster.cpus1.exec_context.thread_0.statExecutedInstType::SimdFloatSqrt            0      0.00%     76.78% # Class of executed instruction. (Count)
testsys.cpu_cluster.cpus1.exec_context.thread_0.statExecutedInstType::SimdReduceAdd            0      0.00%     76.78% # Class of executed instruction. (Count)
testsys.cpu_cluster.cpus1.exec_context.thread_0.statExecutedInstType::SimdReduceAlu            0      0.00%     76.78% # Class of executed instruction. (Count)
testsys.cpu_cluster.cpus1.exec_context.thread_0.statExecutedInstType::SimdReduceCmp            0      0.00%     76.78% # Class of executed instruction. (Count)
testsys.cpu_cluster.cpus1.exec_context.thread_0.statExecutedInstType::SimdFloatReduceAdd            0      0.00%     76.78% # Class of executed instruction. (Count)
testsys.cpu_cluster.cpus1.exec_context.thread_0.statExecutedInstType::SimdFloatReduceCmp            0      0.00%     76.78% # Class of executed instruction. (Count)
testsys.cpu_cluster.cpus1.exec_context.thread_0.statExecutedInstType::SimdAes            0      0.00%     76.78% # Class of executed instruction. (Count)
testsys.cpu_cluster.cpus1.exec_context.thread_0.statExecutedInstType::SimdAesMix            0      0.00%     76.78% # Class of executed instruction. (Count)
testsys.cpu_cluster.cpus1.exec_context.thread_0.statExecutedInstType::SimdSha1Hash            0      0.00%     76.78% # Class of executed instruction. (Count)
testsys.cpu_cluster.cpus1.exec_context.thread_0.statExecutedInstType::SimdSha1Hash2            0      0.00%     76.78% # Class of executed instruction. (Count)
testsys.cpu_cluster.cpus1.exec_context.thread_0.statExecutedInstType::SimdSha256Hash            0      0.00%     76.78% # Class of executed instruction. (Count)
testsys.cpu_cluster.cpus1.exec_context.thread_0.statExecutedInstType::SimdSha256Hash2            0      0.00%     76.78% # Class of executed instruction. (Count)
testsys.cpu_cluster.cpus1.exec_context.thread_0.statExecutedInstType::SimdShaSigma2            0      0.00%     76.78% # Class of executed instruction. (Count)
testsys.cpu_cluster.cpus1.exec_context.thread_0.statExecutedInstType::SimdShaSigma3            0      0.00%     76.78% # Class of executed instruction. (Count)
testsys.cpu_cluster.cpus1.exec_context.thread_0.statExecutedInstType::SimdPredAlu            0      0.00%     76.78% # Class of executed instruction. (Count)
testsys.cpu_cluster.cpus1.exec_context.thread_0.statExecutedInstType::MemRead       488953     12.30%     89.08% # Class of executed instruction. (Count)
testsys.cpu_cluster.cpus1.exec_context.thread_0.statExecutedInstType::MemWrite       433915     10.92%    100.00% # Class of executed instruction. (Count)
testsys.cpu_cluster.cpus1.exec_context.thread_0.statExecutedInstType::FloatMemRead            0      0.00%    100.00% # Class of executed instruction. (Count)
testsys.cpu_cluster.cpus1.exec_context.thread_0.statExecutedInstType::FloatMemWrite            0      0.00%    100.00% # Class of executed instruction. (Count)
testsys.cpu_cluster.cpus1.exec_context.thread_0.statExecutedInstType::IprAccess            0      0.00%    100.00% # Class of executed instruction. (Count)
testsys.cpu_cluster.cpus1.exec_context.thread_0.statExecutedInstType::InstPrefetch            0      0.00%    100.00% # Class of executed instruction. (Count)
testsys.cpu_cluster.cpus1.exec_context.thread_0.statExecutedInstType::total      3974654                       # Class of executed instruction. (Count)
testsys.cpu_cluster.cpus1.mmu.dtb.instHits            0                       # ITB inst hits (Count)
testsys.cpu_cluster.cpus1.mmu.dtb.instMisses            0                       # ITB inst misses (Count)
testsys.cpu_cluster.cpus1.mmu.dtb.readHits       487815                       # DTB read hits (Count)
testsys.cpu_cluster.cpus1.mmu.dtb.readMisses         1325                       # DTB read misses (Count)
testsys.cpu_cluster.cpus1.mmu.dtb.writeHits       433660                       # DTB write hits (Count)
testsys.cpu_cluster.cpus1.mmu.dtb.writeMisses          307                       # DTB write misses (Count)
testsys.cpu_cluster.cpus1.mmu.dtb.inserts         1580                       # Number of times an entry is inserted into the TLB (Count)
testsys.cpu_cluster.cpus1.mmu.dtb.flushTlb            0                       # Number of times complete TLB was flushed (Count)
testsys.cpu_cluster.cpus1.mmu.dtb.flushTlbMva            0                       # Number of times TLB was flushed by MVA (Count)
testsys.cpu_cluster.cpus1.mmu.dtb.flushTlbMvaAsid           78                       # Number of times TLB was flushed by MVA & ASID (Count)
testsys.cpu_cluster.cpus1.mmu.dtb.flushTlbAsid            6                       # Number of times TLB was flushed by ASID (Count)
testsys.cpu_cluster.cpus1.mmu.dtb.flushedEntries          192                       # Number of entries that have been flushed from TLB (Count)
testsys.cpu_cluster.cpus1.mmu.dtb.alignFaults            0                       # Number of TLB faults due to alignment restrictions (Count)
testsys.cpu_cluster.cpus1.mmu.dtb.prefetchFaults           18                       # Number of TLB faults due to prefetch (Count)
testsys.cpu_cluster.cpus1.mmu.dtb.domainFaults            0                       # Number of TLB faults due to domain restrictions (Count)
testsys.cpu_cluster.cpus1.mmu.dtb.permsFaults           28                       # Number of TLB faults due to permissions restrictions (Count)
testsys.cpu_cluster.cpus1.mmu.dtb.readAccesses       489140                       # DTB read accesses (Count)
testsys.cpu_cluster.cpus1.mmu.dtb.writeAccesses       433967                       # DTB write accesses (Count)
testsys.cpu_cluster.cpus1.mmu.dtb.instAccesses            0                       # ITB inst accesses (Count)
testsys.cpu_cluster.cpus1.mmu.dtb.hits         921475                       # Total TLB (inst and data) hits (Count)
testsys.cpu_cluster.cpus1.mmu.dtb.misses         1632                       # Total TLB (inst and data) misses (Count)
testsys.cpu_cluster.cpus1.mmu.dtb.accesses       923107                       # Total TLB (inst and data) accesses (Count)
testsys.cpu_cluster.cpus1.mmu.dtb_walker.walks         1614                       # Table walker walks requested (Count)
testsys.cpu_cluster.cpus1.mmu.dtb_walker.walksLongDescriptor         1614                       # Table walker walks initiated with long descriptors (Count)
testsys.cpu_cluster.cpus1.mmu.dtb_walker.walkWaitTime::samples         1614                       # Table walker wait (enqueue to first request) latency (Tick)
testsys.cpu_cluster.cpus1.mmu.dtb_walker.walkWaitTime::0         1614    100.00%    100.00% # Table walker wait (enqueue to first request) latency (Tick)
testsys.cpu_cluster.cpus1.mmu.dtb_walker.walkWaitTime::total         1614                       # Table walker wait (enqueue to first request) latency (Tick)
testsys.cpu_cluster.cpus1.mmu.dtb_walker.pageSizes::4KiB         1551     98.16%     98.16% # Table walker page sizes translated (Count)
testsys.cpu_cluster.cpus1.mmu.dtb_walker.pageSizes::2MiB           29      1.84%    100.00% # Table walker page sizes translated (Count)
testsys.cpu_cluster.cpus1.mmu.dtb_walker.pageSizes::total         1580                       # Table walker page sizes translated (Count)
testsys.cpu_cluster.cpus1.mmu.dtb_walker.requestOrigin_Requested::Data         1614                       # Table walker requests started/completed, data/inst (Count)
testsys.cpu_cluster.cpus1.mmu.dtb_walker.requestOrigin_Requested::Inst            0                       # Table walker requests started/completed, data/inst (Count)
testsys.cpu_cluster.cpus1.mmu.dtb_walker.requestOrigin_Requested::total         1614                       # Table walker requests started/completed, data/inst (Count)
testsys.cpu_cluster.cpus1.mmu.dtb_walker.requestOrigin_Completed::Data         1580                       # Table walker requests started/completed, data/inst (Count)
testsys.cpu_cluster.cpus1.mmu.dtb_walker.requestOrigin_Completed::Inst            0                       # Table walker requests started/completed, data/inst (Count)
testsys.cpu_cluster.cpus1.mmu.dtb_walker.requestOrigin_Completed::total         1580                       # Table walker requests started/completed, data/inst (Count)
testsys.cpu_cluster.cpus1.mmu.dtb_walker.requestOrigin::total         3194                       # Table walker requests started/completed, data/inst (Count)
testsys.cpu_cluster.cpus1.mmu.dtb_walker.power_state.pwrStateResidencyTicks::UNDEFINED 787361519750                       # Cumulative time (in ticks) in various power states (Tick)
testsys.cpu_cluster.cpus1.mmu.itb.instHits      3518319                       # ITB inst hits (Count)
testsys.cpu_cluster.cpus1.mmu.itb.instMisses          870                       # ITB inst misses (Count)
testsys.cpu_cluster.cpus1.mmu.itb.readHits            0                       # DTB read hits (Count)
testsys.cpu_cluster.cpus1.mmu.itb.readMisses            0                       # DTB read misses (Count)
testsys.cpu_cluster.cpus1.mmu.itb.writeHits            0                       # DTB write hits (Count)
testsys.cpu_cluster.cpus1.mmu.itb.writeMisses            0                       # DTB write misses (Count)
testsys.cpu_cluster.cpus1.mmu.itb.inserts          845                       # Number of times an entry is inserted into the TLB (Count)
testsys.cpu_cluster.cpus1.mmu.itb.flushTlb            0                       # Number of times complete TLB was flushed (Count)
testsys.cpu_cluster.cpus1.mmu.itb.flushTlbMva            0                       # Number of times TLB was flushed by MVA (Count)
testsys.cpu_cluster.cpus1.mmu.itb.flushTlbMvaAsid           78                       # Number of times TLB was flushed by MVA & ASID (Count)
testsys.cpu_cluster.cpus1.mmu.itb.flushTlbAsid            6                       # Number of times TLB was flushed by ASID (Count)
testsys.cpu_cluster.cpus1.mmu.itb.flushedEntries          171                       # Number of entries that have been flushed from TLB (Count)
testsys.cpu_cluster.cpus1.mmu.itb.alignFaults            0                       # Number of TLB faults due to alignment restrictions (Count)
testsys.cpu_cluster.cpus1.mmu.itb.prefetchFaults            0                       # Number of TLB faults due to prefetch (Count)
testsys.cpu_cluster.cpus1.mmu.itb.domainFaults            0                       # Number of TLB faults due to domain restrictions (Count)
testsys.cpu_cluster.cpus1.mmu.itb.permsFaults            0                       # Number of TLB faults due to permissions restrictions (Count)
testsys.cpu_cluster.cpus1.mmu.itb.readAccesses            0                       # DTB read accesses (Count)
testsys.cpu_cluster.cpus1.mmu.itb.writeAccesses            0                       # DTB write accesses (Count)
testsys.cpu_cluster.cpus1.mmu.itb.instAccesses      3519189                       # ITB inst accesses (Count)
testsys.cpu_cluster.cpus1.mmu.itb.hits        3518319                       # Total TLB (inst and data) hits (Count)
testsys.cpu_cluster.cpus1.mmu.itb.misses          870                       # Total TLB (inst and data) misses (Count)
testsys.cpu_cluster.cpus1.mmu.itb.accesses      3519189                       # Total TLB (inst and data) accesses (Count)
testsys.cpu_cluster.cpus1.mmu.itb_walker.walks          870                       # Table walker walks requested (Count)
testsys.cpu_cluster.cpus1.mmu.itb_walker.walksLongDescriptor          870                       # Table walker walks initiated with long descriptors (Count)
testsys.cpu_cluster.cpus1.mmu.itb_walker.walkWaitTime::samples          870                       # Table walker wait (enqueue to first request) latency (Tick)
testsys.cpu_cluster.cpus1.mmu.itb_walker.walkWaitTime::0          870    100.00%    100.00% # Table walker wait (enqueue to first request) latency (Tick)
testsys.cpu_cluster.cpus1.mmu.itb_walker.walkWaitTime::total          870                       # Table walker wait (enqueue to first request) latency (Tick)
testsys.cpu_cluster.cpus1.mmu.itb_walker.pageSizes::4KiB          823     97.40%     97.40% # Table walker page sizes translated (Count)
testsys.cpu_cluster.cpus1.mmu.itb_walker.pageSizes::2MiB           22      2.60%    100.00% # Table walker page sizes translated (Count)
testsys.cpu_cluster.cpus1.mmu.itb_walker.pageSizes::total          845                       # Table walker page sizes translated (Count)
testsys.cpu_cluster.cpus1.mmu.itb_walker.requestOrigin_Requested::Data            0                       # Table walker requests started/completed, data/inst (Count)
testsys.cpu_cluster.cpus1.mmu.itb_walker.requestOrigin_Requested::Inst          870                       # Table walker requests started/completed, data/inst (Count)
testsys.cpu_cluster.cpus1.mmu.itb_walker.requestOrigin_Requested::total          870                       # Table walker requests started/completed, data/inst (Count)
testsys.cpu_cluster.cpus1.mmu.itb_walker.requestOrigin_Completed::Data            0                       # Table walker requests started/completed, data/inst (Count)
testsys.cpu_cluster.cpus1.mmu.itb_walker.requestOrigin_Completed::Inst          845                       # Table walker requests started/completed, data/inst (Count)
testsys.cpu_cluster.cpus1.mmu.itb_walker.requestOrigin_Completed::total          845                       # Table walker requests started/completed, data/inst (Count)
testsys.cpu_cluster.cpus1.mmu.itb_walker.requestOrigin::total         1715                       # Table walker requests started/completed, data/inst (Count)
testsys.cpu_cluster.cpus1.mmu.itb_walker.power_state.pwrStateResidencyTicks::UNDEFINED 787361519750                       # Cumulative time (in ticks) in various power states (Tick)
testsys.cpu_cluster.cpus1.mmu.stage2_dtb.instHits            0                       # ITB inst hits (Count)
testsys.cpu_cluster.cpus1.mmu.stage2_dtb.instMisses            0                       # ITB inst misses (Count)
testsys.cpu_cluster.cpus1.mmu.stage2_dtb.readHits            0                       # DTB read hits (Count)
testsys.cpu_cluster.cpus1.mmu.stage2_dtb.readMisses            0                       # DTB read misses (Count)
testsys.cpu_cluster.cpus1.mmu.stage2_dtb.writeHits            0                       # DTB write hits (Count)
testsys.cpu_cluster.cpus1.mmu.stage2_dtb.writeMisses            0                       # DTB write misses (Count)
testsys.cpu_cluster.cpus1.mmu.stage2_dtb.inserts            0                       # Number of times an entry is inserted into the TLB (Count)
testsys.cpu_cluster.cpus1.mmu.stage2_dtb.flushTlb            0                       # Number of times complete TLB was flushed (Count)
testsys.cpu_cluster.cpus1.mmu.stage2_dtb.flushTlbMva            0                       # Number of times TLB was flushed by MVA (Count)
testsys.cpu_cluster.cpus1.mmu.stage2_dtb.flushTlbMvaAsid            0                       # Number of times TLB was flushed by MVA & ASID (Count)
testsys.cpu_cluster.cpus1.mmu.stage2_dtb.flushTlbAsid            0                       # Number of times TLB was flushed by ASID (Count)
testsys.cpu_cluster.cpus1.mmu.stage2_dtb.flushedEntries            0                       # Number of entries that have been flushed from TLB (Count)
testsys.cpu_cluster.cpus1.mmu.stage2_dtb.alignFaults            0                       # Number of TLB faults due to alignment restrictions (Count)
testsys.cpu_cluster.cpus1.mmu.stage2_dtb.prefetchFaults            0                       # Number of TLB faults due to prefetch (Count)
testsys.cpu_cluster.cpus1.mmu.stage2_dtb.domainFaults            0                       # Number of TLB faults due to domain restrictions (Count)
testsys.cpu_cluster.cpus1.mmu.stage2_dtb.permsFaults            0                       # Number of TLB faults due to permissions restrictions (Count)
testsys.cpu_cluster.cpus1.mmu.stage2_dtb.readAccesses            0                       # DTB read accesses (Count)
testsys.cpu_cluster.cpus1.mmu.stage2_dtb.writeAccesses            0                       # DTB write accesses (Count)
testsys.cpu_cluster.cpus1.mmu.stage2_dtb.instAccesses            0                       # ITB inst accesses (Count)
testsys.cpu_cluster.cpus1.mmu.stage2_dtb.hits            0                       # Total TLB (inst and data) hits (Count)
testsys.cpu_cluster.cpus1.mmu.stage2_dtb.misses            0                       # Total TLB (inst and data) misses (Count)
testsys.cpu_cluster.cpus1.mmu.stage2_dtb.accesses            0                       # Total TLB (inst and data) accesses (Count)
testsys.cpu_cluster.cpus1.mmu.stage2_dtb_walker.walks            0                       # Table walker walks requested (Count)
testsys.cpu_cluster.cpus1.mmu.stage2_dtb_walker.requestOrigin_Requested::Data            0                       # Table walker requests started/completed, data/inst (Count)
testsys.cpu_cluster.cpus1.mmu.stage2_dtb_walker.requestOrigin_Requested::Inst            0                       # Table walker requests started/completed, data/inst (Count)
testsys.cpu_cluster.cpus1.mmu.stage2_dtb_walker.requestOrigin_Requested::total            0                       # Table walker requests started/completed, data/inst (Count)
testsys.cpu_cluster.cpus1.mmu.stage2_dtb_walker.requestOrigin_Completed::Data            0                       # Table walker requests started/completed, data/inst (Count)
testsys.cpu_cluster.cpus1.mmu.stage2_dtb_walker.requestOrigin_Completed::Inst            0                       # Table walker requests started/completed, data/inst (Count)
testsys.cpu_cluster.cpus1.mmu.stage2_dtb_walker.requestOrigin_Completed::total            0                       # Table walker requests started/completed, data/inst (Count)
testsys.cpu_cluster.cpus1.mmu.stage2_dtb_walker.requestOrigin::total            0                       # Table walker requests started/completed, data/inst (Count)
testsys.cpu_cluster.cpus1.mmu.stage2_dtb_walker.power_state.pwrStateResidencyTicks::UNDEFINED 787361519750                       # Cumulative time (in ticks) in various power states (Tick)
testsys.cpu_cluster.cpus1.mmu.stage2_itb.instHits            0                       # ITB inst hits (Count)
testsys.cpu_cluster.cpus1.mmu.stage2_itb.instMisses            0                       # ITB inst misses (Count)
testsys.cpu_cluster.cpus1.mmu.stage2_itb.readHits            0                       # DTB read hits (Count)
testsys.cpu_cluster.cpus1.mmu.stage2_itb.readMisses            0                       # DTB read misses (Count)
testsys.cpu_cluster.cpus1.mmu.stage2_itb.writeHits            0                       # DTB write hits (Count)
testsys.cpu_cluster.cpus1.mmu.stage2_itb.writeMisses            0                       # DTB write misses (Count)
testsys.cpu_cluster.cpus1.mmu.stage2_itb.inserts            0                       # Number of times an entry is inserted into the TLB (Count)
testsys.cpu_cluster.cpus1.mmu.stage2_itb.flushTlb            0                       # Number of times complete TLB was flushed (Count)
testsys.cpu_cluster.cpus1.mmu.stage2_itb.flushTlbMva            0                       # Number of times TLB was flushed by MVA (Count)
testsys.cpu_cluster.cpus1.mmu.stage2_itb.flushTlbMvaAsid            0                       # Number of times TLB was flushed by MVA & ASID (Count)
testsys.cpu_cluster.cpus1.mmu.stage2_itb.flushTlbAsid            0                       # Number of times TLB was flushed by ASID (Count)
testsys.cpu_cluster.cpus1.mmu.stage2_itb.flushedEntries            0                       # Number of entries that have been flushed from TLB (Count)
testsys.cpu_cluster.cpus1.mmu.stage2_itb.alignFaults            0                       # Number of TLB faults due to alignment restrictions (Count)
testsys.cpu_cluster.cpus1.mmu.stage2_itb.prefetchFaults            0                       # Number of TLB faults due to prefetch (Count)
testsys.cpu_cluster.cpus1.mmu.stage2_itb.domainFaults            0                       # Number of TLB faults due to domain restrictions (Count)
testsys.cpu_cluster.cpus1.mmu.stage2_itb.permsFaults            0                       # Number of TLB faults due to permissions restrictions (Count)
testsys.cpu_cluster.cpus1.mmu.stage2_itb.readAccesses            0                       # DTB read accesses (Count)
testsys.cpu_cluster.cpus1.mmu.stage2_itb.writeAccesses            0                       # DTB write accesses (Count)
testsys.cpu_cluster.cpus1.mmu.stage2_itb.instAccesses            0                       # ITB inst accesses (Count)
testsys.cpu_cluster.cpus1.mmu.stage2_itb.hits            0                       # Total TLB (inst and data) hits (Count)
testsys.cpu_cluster.cpus1.mmu.stage2_itb.misses            0                       # Total TLB (inst and data) misses (Count)
testsys.cpu_cluster.cpus1.mmu.stage2_itb.accesses            0                       # Total TLB (inst and data) accesses (Count)
testsys.cpu_cluster.cpus1.mmu.stage2_itb_walker.walks            0                       # Table walker walks requested (Count)
testsys.cpu_cluster.cpus1.mmu.stage2_itb_walker.requestOrigin_Requested::Data            0                       # Table walker requests started/completed, data/inst (Count)
testsys.cpu_cluster.cpus1.mmu.stage2_itb_walker.requestOrigin_Requested::Inst            0                       # Table walker requests started/completed, data/inst (Count)
testsys.cpu_cluster.cpus1.mmu.stage2_itb_walker.requestOrigin_Requested::total            0                       # Table walker requests started/completed, data/inst (Count)
testsys.cpu_cluster.cpus1.mmu.stage2_itb_walker.requestOrigin_Completed::Data            0                       # Table walker requests started/completed, data/inst (Count)
testsys.cpu_cluster.cpus1.mmu.stage2_itb_walker.requestOrigin_Completed::Inst            0                       # Table walker requests started/completed, data/inst (Count)
testsys.cpu_cluster.cpus1.mmu.stage2_itb_walker.requestOrigin_Completed::total            0                       # Table walker requests started/completed, data/inst (Count)
testsys.cpu_cluster.cpus1.mmu.stage2_itb_walker.requestOrigin::total            0                       # Table walker requests started/completed, data/inst (Count)
testsys.cpu_cluster.cpus1.mmu.stage2_itb_walker.power_state.pwrStateResidencyTicks::UNDEFINED 787361519750                       # Cumulative time (in ticks) in various power states (Tick)
testsys.cpu_cluster.cpus1.power_state.numTransitions         5647                       # Number of power state transitions (Count)
testsys.cpu_cluster.cpus1.power_state.ticksClkGated::samples         2824                       # Distribution of time spent in the clock gated state (Tick)
testsys.cpu_cluster.cpus1.power_state.ticksClkGated::mean 161260053.652266                       # Distribution of time spent in the clock gated state (Tick)
testsys.cpu_cluster.cpus1.power_state.ticksClkGated::stdev 11792897.520155                       # Distribution of time spent in the clock gated state (Tick)
testsys.cpu_cluster.cpus1.power_state.ticksClkGated::1000-5e+10         2824    100.00%    100.00% # Distribution of time spent in the clock gated state (Tick)
testsys.cpu_cluster.cpus1.power_state.ticksClkGated::min_value       490000                       # Distribution of time spent in the clock gated state (Tick)
testsys.cpu_cluster.cpus1.power_state.ticksClkGated::max_value    162671156                       # Distribution of time spent in the clock gated state (Tick)
testsys.cpu_cluster.cpus1.power_state.ticksClkGated::total         2824                       # Distribution of time spent in the clock gated state (Tick)
testsys.cpu_cluster.cpus1.power_state.pwrStateResidencyTicks::ON    993313736                       # Cumulative time (in ticks) in various power states (Tick)
testsys.cpu_cluster.cpus1.power_state.pwrStateResidencyTicks::CLK_GATED 455398391514                       # Cumulative time (in ticks) in various power states (Tick)
testsys.cpu_cluster.cpus1.thread_0.numInsts            0                       # Number of Instructions committed (Count)
testsys.cpu_cluster.cpus1.thread_0.numOps            0                       # Number of Ops committed (Count)
testsys.cpu_cluster.cpus1.thread_0.numMemRefs            0                       # Number of Memory References (Count)
testsys.cpu_cluster.cpus2.numCycles        1825504761                       # Number of cpu cycles simulated (Cycle)
testsys.cpu_cluster.cpus2.numWorkItemsStarted            0                       # Number of work items this cpu started (Count)
testsys.cpu_cluster.cpus2.numWorkItemsCompleted            0                       # Number of work items this cpu completed (Count)
testsys.cpu_cluster.cpus2.exec_context.thread_0.numInsts      2784799                       # Number of instructions committed (Count)
testsys.cpu_cluster.cpus2.exec_context.thread_0.numOps      3107252                       # Number of ops (including micro ops) committed (Count)
testsys.cpu_cluster.cpus2.exec_context.thread_0.numIntAluAccesses      2782359                       # Number of integer alu accesses (Count)
testsys.cpu_cluster.cpus2.exec_context.thread_0.numFpAluAccesses            0                       # Number of float alu accesses (Count)
testsys.cpu_cluster.cpus2.exec_context.thread_0.numVecAluAccesses            0                       # Number of vector alu accesses (Count)
testsys.cpu_cluster.cpus2.exec_context.thread_0.numCallsReturns       225525                       # Number of times a function call or return occured (Count)
testsys.cpu_cluster.cpus2.exec_context.thread_0.numCondCtrlInsts       341821                       # Number of instructions that are conditional controls (Count)
testsys.cpu_cluster.cpus2.exec_context.thread_0.numIntInsts      2782359                       # Number of integer instructions (Count)
testsys.cpu_cluster.cpus2.exec_context.thread_0.numFpInsts            0                       # Number of float instructions (Count)
testsys.cpu_cluster.cpus2.exec_context.thread_0.numVecInsts            0                       # Number of vector instructions (Count)
testsys.cpu_cluster.cpus2.exec_context.thread_0.numIntRegReads      3885016                       # Number of times the integer registers were read (Count)
testsys.cpu_cluster.cpus2.exec_context.thread_0.numIntRegWrites      2357674                       # Number of times the integer registers were written (Count)
testsys.cpu_cluster.cpus2.exec_context.thread_0.numFpRegReads            0                       # Number of times the floating registers were read (Count)
testsys.cpu_cluster.cpus2.exec_context.thread_0.numFpRegWrites            0                       # Number of times the floating registers were written (Count)
testsys.cpu_cluster.cpus2.exec_context.thread_0.numVecRegReads            0                       # Number of times the vector registers were read (Count)
testsys.cpu_cluster.cpus2.exec_context.thread_0.numVecRegWrites            0                       # Number of times the vector registers were written (Count)
testsys.cpu_cluster.cpus2.exec_context.thread_0.numVecPredRegReads            0                       # Number of times the predicate registers were read (Count)
testsys.cpu_cluster.cpus2.exec_context.thread_0.numVecPredRegWrites            0                       # Number of times the predicate registers were written (Count)
testsys.cpu_cluster.cpus2.exec_context.thread_0.numCCRegReads       833943                       # Number of times the CC registers were read (Count)
testsys.cpu_cluster.cpus2.exec_context.thread_0.numCCRegWrites       824886                       # Number of times the CC registers were written (Count)
testsys.cpu_cluster.cpus2.exec_context.thread_0.numMemRefs       644256                       # Number of memory refs (Count)
testsys.cpu_cluster.cpus2.exec_context.thread_0.numLoadInsts       333572                       # Number of load instructions (Count)
testsys.cpu_cluster.cpus2.exec_context.thread_0.numStoreInsts       310684                       # Number of store instructions (Count)
testsys.cpu_cluster.cpus2.exec_context.thread_0.numIdleCycles 1822398415.037992                       # Number of idle cycles (Cycle)
testsys.cpu_cluster.cpus2.exec_context.thread_0.numBusyCycles 3106345.962008                       # Number of busy cycles (Cycle)
testsys.cpu_cluster.cpus2.exec_context.thread_0.notIdleFraction     0.001702                       # Percentage of non-idle cycles (Ratio)
testsys.cpu_cluster.cpus2.exec_context.thread_0.idleFraction     0.998298                       # Percentage of idle cycles (Ratio)
testsys.cpu_cluster.cpus2.exec_context.thread_0.numBranches       605760                       # Number of branches fetched (Count)
testsys.cpu_cluster.cpus2.exec_context.thread_0.statExecutedInstType::No_OpClass            0      0.00%      0.00% # Class of executed instruction. (Count)
testsys.cpu_cluster.cpus2.exec_context.thread_0.statExecutedInstType::IntAlu      2459466     79.15%     79.15% # Class of executed instruction. (Count)
testsys.cpu_cluster.cpus2.exec_context.thread_0.statExecutedInstType::IntMult         3255      0.10%     79.26% # Class of executed instruction. (Count)
testsys.cpu_cluster.cpus2.exec_context.thread_0.statExecutedInstType::IntDiv          275      0.01%     79.27% # Class of executed instruction. (Count)
testsys.cpu_cluster.cpus2.exec_context.thread_0.statExecutedInstType::FloatAdd            0      0.00%     79.27% # Class of executed instruction. (Count)
testsys.cpu_cluster.cpus2.exec_context.thread_0.statExecutedInstType::FloatCmp            0      0.00%     79.27% # Class of executed instruction. (Count)
testsys.cpu_cluster.cpus2.exec_context.thread_0.statExecutedInstType::FloatCvt            0      0.00%     79.27% # Class of executed instruction. (Count)
testsys.cpu_cluster.cpus2.exec_context.thread_0.statExecutedInstType::FloatMult            0      0.00%     79.27% # Class of executed instruction. (Count)
testsys.cpu_cluster.cpus2.exec_context.thread_0.statExecutedInstType::FloatMultAcc            0      0.00%     79.27% # Class of executed instruction. (Count)
testsys.cpu_cluster.cpus2.exec_context.thread_0.statExecutedInstType::FloatDiv            0      0.00%     79.27% # Class of executed instruction. (Count)
testsys.cpu_cluster.cpus2.exec_context.thread_0.statExecutedInstType::FloatMisc            0      0.00%     79.27% # Class of executed instruction. (Count)
testsys.cpu_cluster.cpus2.exec_context.thread_0.statExecutedInstType::FloatSqrt            0      0.00%     79.27% # Class of executed instruction. (Count)
testsys.cpu_cluster.cpus2.exec_context.thread_0.statExecutedInstType::SimdAdd            0      0.00%     79.27% # Class of executed instruction. (Count)
testsys.cpu_cluster.cpus2.exec_context.thread_0.statExecutedInstType::SimdAddAcc            0      0.00%     79.27% # Class of executed instruction. (Count)
testsys.cpu_cluster.cpus2.exec_context.thread_0.statExecutedInstType::SimdAlu            0      0.00%     79.27% # Class of executed instruction. (Count)
testsys.cpu_cluster.cpus2.exec_context.thread_0.statExecutedInstType::SimdCmp            0      0.00%     79.27% # Class of executed instruction. (Count)
testsys.cpu_cluster.cpus2.exec_context.thread_0.statExecutedInstType::SimdCvt            0      0.00%     79.27% # Class of executed instruction. (Count)
testsys.cpu_cluster.cpus2.exec_context.thread_0.statExecutedInstType::SimdMisc            0      0.00%     79.27% # Class of executed instruction. (Count)
testsys.cpu_cluster.cpus2.exec_context.thread_0.statExecutedInstType::SimdMult            0      0.00%     79.27% # Class of executed instruction. (Count)
testsys.cpu_cluster.cpus2.exec_context.thread_0.statExecutedInstType::SimdMultAcc            0      0.00%     79.27% # Class of executed instruction. (Count)
testsys.cpu_cluster.cpus2.exec_context.thread_0.statExecutedInstType::SimdShift            0      0.00%     79.27% # Class of executed instruction. (Count)
testsys.cpu_cluster.cpus2.exec_context.thread_0.statExecutedInstType::SimdShiftAcc            0      0.00%     79.27% # Class of executed instruction. (Count)
testsys.cpu_cluster.cpus2.exec_context.thread_0.statExecutedInstType::SimdDiv            0      0.00%     79.27% # Class of executed instruction. (Count)
testsys.cpu_cluster.cpus2.exec_context.thread_0.statExecutedInstType::SimdSqrt            0      0.00%     79.27% # Class of executed instruction. (Count)
testsys.cpu_cluster.cpus2.exec_context.thread_0.statExecutedInstType::SimdFloatAdd            0      0.00%     79.27% # Class of executed instruction. (Count)
testsys.cpu_cluster.cpus2.exec_context.thread_0.statExecutedInstType::SimdFloatAlu            0      0.00%     79.27% # Class of executed instruction. (Count)
testsys.cpu_cluster.cpus2.exec_context.thread_0.statExecutedInstType::SimdFloatCmp            0      0.00%     79.27% # Class of executed instruction. (Count)
testsys.cpu_cluster.cpus2.exec_context.thread_0.statExecutedInstType::SimdFloatCvt            0      0.00%     79.27% # Class of executed instruction. (Count)
testsys.cpu_cluster.cpus2.exec_context.thread_0.statExecutedInstType::SimdFloatDiv            0      0.00%     79.27% # Class of executed instruction. (Count)
testsys.cpu_cluster.cpus2.exec_context.thread_0.statExecutedInstType::SimdFloatMisc            0      0.00%     79.27% # Class of executed instruction. (Count)
testsys.cpu_cluster.cpus2.exec_context.thread_0.statExecutedInstType::SimdFloatMult            0      0.00%     79.27% # Class of executed instruction. (Count)
testsys.cpu_cluster.cpus2.exec_context.thread_0.statExecutedInstType::SimdFloatMultAcc            0      0.00%     79.27% # Class of executed instruction. (Count)
testsys.cpu_cluster.cpus2.exec_context.thread_0.statExecutedInstType::SimdFloatSqrt            0      0.00%     79.27% # Class of executed instruction. (Count)
testsys.cpu_cluster.cpus2.exec_context.thread_0.statExecutedInstType::SimdReduceAdd            0      0.00%     79.27% # Class of executed instruction. (Count)
testsys.cpu_cluster.cpus2.exec_context.thread_0.statExecutedInstType::SimdReduceAlu            0      0.00%     79.27% # Class of executed instruction. (Count)
testsys.cpu_cluster.cpus2.exec_context.thread_0.statExecutedInstType::SimdReduceCmp            0      0.00%     79.27% # Class of executed instruction. (Count)
[...]
testsys.pci_devices1.power_state.pwrStateResidencyTicks::UNDEFINED 787580865500                       # Cumulative time (in ticks) in various power states (Tick)
testsys.pci_devices2.EtherDevice.postedInterrupts            0                       # Number of posts to CPU (Count)
testsys.pci_devices2.EtherDevice.descDmaReads            0                       # Number of descriptors the device read w/ DMA (Count)
testsys.pci_devices2.EtherDevice.descDmaWrites            0                       # Number of descriptors the device wrote w/ DMA (Count)
testsys.pci_devices2.EtherDevice.descDmaRdBytes            0                       # Number of descriptor bytes read w/ DMA (Count)
testsys.pci_devices2.EtherDevice.descDmaWrBytes            0                       # Number of descriptor bytes write w/ DMA (Count)
testsys.pci_devices2.EtherDevice.postedSwi            0                       # Number of software interrupts posted to CPU (Count)
testsys.pci_devices2.EtherDevice.totalSwi            0                       # Total number of Swi written to ISR (Count)
testsys.pci_devices2.EtherDevice.coalescedSwi          nan                       # Average number of Swi's coalesced into each post ((Count/Count))
testsys.pci_devices2.EtherDevice.postedRxIdle            0                       # Number of rxIdle interrupts posted to CPU (Count)
testsys.pci_devices2.EtherDevice.totalRxIdle            0                       # Total number of RxIdle written to ISR (Count)
testsys.pci_devices2.EtherDevice.coalescedRxIdle          nan                       # Average number of RxIdle's coalesced into each post ((Count/Count))
testsys.pci_devices2.EtherDevice.postedRxOk            0                       # Number of RxOk interrupts posted to CPU (Count)
testsys.pci_devices2.EtherDevice.totalRxOk            0                       # Total number of RxOk written to ISR (Count)
testsys.pci_devices2.EtherDevice.coalescedRxOk          nan                       # Average number of RxOk's coalesced into each post ((Count/Count))
testsys.pci_devices2.EtherDevice.postedRxDesc            0                       # Number of RxDesc interrupts posted to CPU (Count)
testsys.pci_devices2.EtherDevice.totalRxDesc            0                       # Total number of RxDesc written to ISR (Count)
testsys.pci_devices2.EtherDevice.coalescedRxDesc          nan                       # Average number of RxDesc's coalesced into each post ((Count/Count))
testsys.pci_devices2.EtherDevice.postedTxOk            0                       # Number of TxOk interrupts posted to CPU (Count)
testsys.pci_devices2.EtherDevice.totalTxOk            0                       # Total number of TxOk written to ISR (Count)
testsys.pci_devices2.EtherDevice.coalescedTxOk          nan                       # Average number of TxOk's coalesced into each post ((Count/Count))
testsys.pci_devices2.EtherDevice.postedTxIdle            0                       # Number of TxIdle interrupts posted to CPU (Count)
testsys.pci_devices2.EtherDevice.totalTxIdle            0                       # Total number of TxIdle written to ISR (Count)
testsys.pci_devices2.EtherDevice.coalescedTxIdle          nan                       # Average number of TxIdle's coalesced into each post ((Count/Count))
testsys.pci_devices2.EtherDevice.postedTxDesc            0                       # Number of TxDesc interrupts posted to CPU (Count)
testsys.pci_devices2.EtherDevice.totalTxDesc            0                       # Total number of TxDesc written to ISR (Count)
testsys.pci_devices2.EtherDevice.coalescedTxDesc          nan                       # Average number of TxDesc's coalesced into each post ((Count/Count))
testsys.pci_devices2.EtherDevice.postedRxOrn            0                       # Number of RxOrn posted to CPU (Count)
testsys.pci_devices2.EtherDevice.totalRxOrn            0                       # Total number of RxOrn written to ISR (Count)
testsys.pci_devices2.EtherDevice.coalescedRxOrn          nan                       # Average number of RxOrn's coalesced into each post ((Count/Count))
testsys.pci_devices2.EtherDevice.coalescedTotal          nan                       # Average number of interrupts coalesced into each post ((Count/Count))
testsys.pci_devices2.EtherDevice.droppedPackets            0                       # Number of packets dropped (Count)
testsys.pci_devices2.power_state.pwrStateResidencyTicks::UNDEFINED 787580865500                       # Cumulative time (in ticks) in various power states (Tick)
testsys.pci_devices3.EtherDevice.postedInterrupts            0                       # Number of posts to CPU (Count)
testsys.pci_devices3.EtherDevice.descDmaReads            0                       # Number of descriptors the device read w/ DMA (Count)
testsys.pci_devices3.EtherDevice.descDmaWrites            0                       # Number of descriptors the device wrote w/ DMA (Count)
testsys.pci_devices3.EtherDevice.descDmaRdBytes            0                       # Number of descriptor bytes read w/ DMA (Count)
testsys.pci_devices3.EtherDevice.descDmaWrBytes            0                       # Number of descriptor bytes write w/ DMA (Count)
testsys.pci_devices3.EtherDevice.postedSwi            0                       # Number of software interrupts posted to CPU (Count)
testsys.pci_devices3.EtherDevice.totalSwi            0                       # Total number of Swi written to ISR (Count)
testsys.pci_devices3.EtherDevice.coalescedSwi          nan                       # Average number of Swi's coalesced into each post ((Count/Count))
testsys.pci_devices3.EtherDevice.postedRxIdle            0                       # Number of rxIdle interrupts posted to CPU (Count)
testsys.pci_devices3.EtherDevice.totalRxIdle            0                       # Total number of RxIdle written to ISR (Count)
testsys.pci_devices3.EtherDevice.coalescedRxIdle          nan                       # Average number of RxIdle's coalesced into each post ((Count/Count))
testsys.pci_devices3.EtherDevice.postedRxOk            0                       # Number of RxOk interrupts posted to CPU (Count)
testsys.pci_devices3.EtherDevice.totalRxOk            0                       # Total number of RxOk written to ISR (Count)
testsys.pci_devices3.EtherDevice.coalescedRxOk          nan                       # Average number of RxOk's coalesced into each post ((Count/Count))
testsys.pci_devices3.EtherDevice.postedRxDesc            0                       # Number of RxDesc interrupts posted to CPU (Count)
testsys.pci_devices3.EtherDevice.totalRxDesc            0                       # Total number of RxDesc written to ISR (Count)
testsys.pci_devices3.EtherDevice.coalescedRxDesc          nan                       # Average number of RxDesc's coalesced into each post ((Count/Count))
testsys.pci_devices3.EtherDevice.postedTxOk            0                       # Number of TxOk interrupts posted to CPU (Count)
testsys.pci_devices3.EtherDevice.totalTxOk            0                       # Total number of TxOk written to ISR (Count)
testsys.pci_devices3.EtherDevice.coalescedTxOk          nan                       # Average number of TxOk's coalesced into each post ((Count/Count))
testsys.pci_devices3.EtherDevice.postedTxIdle            0                       # Number of TxIdle interrupts posted to CPU (Count)
testsys.pci_devices3.EtherDevice.totalTxIdle            0                       # Total number of TxIdle written to ISR (Count)
testsys.pci_devices3.EtherDevice.coalescedTxIdle          nan                       # Average number of TxIdle's coalesced into each post ((Count/Count))
testsys.pci_devices3.EtherDevice.postedTxDesc            0                       # Number of TxDesc interrupts posted to CPU (Count)
testsys.pci_devices3.EtherDevice.totalTxDesc            0                       # Total number of TxDesc written to ISR (Count)
testsys.pci_devices3.EtherDevice.coalescedTxDesc          nan                       # Average number of TxDesc's coalesced into each post ((Count/Count))
testsys.pci_devices3.EtherDevice.postedRxOrn            0                       # Number of RxOrn posted to CPU (Count)
testsys.pci_devices3.EtherDevice.totalRxOrn            0                       # Total number of RxOrn written to ISR (Count)
testsys.pci_devices3.EtherDevice.coalescedRxOrn          nan                       # Average number of RxOrn's coalesced into each post ((Count/Count))
testsys.pci_devices3.EtherDevice.coalescedTotal          nan                       # Average number of interrupts coalesced into each post ((Count/Count))
testsys.pci_devices3.EtherDevice.droppedPackets            0                       # Number of packets dropped (Count)
testsys.pci_devices3.power_state.pwrStateResidencyTicks::UNDEFINED 787580865500                       # Cumulative time (in ticks) in various power states (Tick)
testsys.pci_devices4.EtherDevice.postedInterrupts            0                       # Number of posts to CPU (Count)
testsys.pci_devices4.EtherDevice.descDmaReads            0                       # Number of descriptors the device read w/ DMA (Count)
testsys.pci_devices4.EtherDevice.descDmaWrites            0                       # Number of descriptors the device wrote w/ DMA (Count)
testsys.pci_devices4.EtherDevice.descDmaRdBytes            0                       # Number of descriptor bytes read w/ DMA (Count)
testsys.pci_devices4.EtherDevice.descDmaWrBytes            0                       # Number of descriptor bytes write w/ DMA (Count)
testsys.pci_devices4.EtherDevice.postedSwi            0                       # Number of software interrupts posted to CPU (Count)
testsys.pci_devices4.EtherDevice.totalSwi            0                       # Total number of Swi written to ISR (Count)
testsys.pci_devices4.EtherDevice.coalescedSwi          nan                       # Average number of Swi's coalesced into each post ((Count/Count))
testsys.pci_devices4.EtherDevice.postedRxIdle            0                       # Number of rxIdle interrupts posted to CPU (Count)
testsys.pci_devices4.EtherDevice.totalRxIdle            0                       # Total number of RxIdle written to ISR (Count)
testsys.pci_devices4.EtherDevice.coalescedRxIdle          nan                       # Average number of RxIdle's coalesced into each post ((Count/Count))
testsys.pci_devices4.EtherDevice.postedRxOk            0                       # Number of RxOk interrupts posted to CPU (Count)
testsys.pci_devices4.EtherDevice.totalRxOk            0                       # Total number of RxOk written to ISR (Count)
testsys.pci_devices4.EtherDevice.coalescedRxOk          nan                       # Average number of RxOk's coalesced into each post ((Count/Count))
testsys.pci_devices4.EtherDevice.postedRxDesc            0                       # Number of RxDesc interrupts posted to CPU (Count)
testsys.pci_devices4.EtherDevice.totalRxDesc            0                       # Total number of RxDesc written to ISR (Count)
testsys.pci_devices4.EtherDevice.coalescedRxDesc          nan                       # Average number of RxDesc's coalesced into each post ((Count/Count))
testsys.pci_devices4.EtherDevice.postedTxOk            0                       # Number of TxOk interrupts posted to CPU (Count)
testsys.pci_devices4.EtherDevice.totalTxOk            0                       # Total number of TxOk written to ISR (Count)
testsys.pci_devices4.EtherDevice.coalescedTxOk          nan                       # Average number of TxOk's coalesced into each post ((Count/Count))
testsys.pci_devices4.EtherDevice.postedTxIdle            0                       # Number of TxIdle interrupts posted to CPU (Count)
testsys.pci_devices4.EtherDevice.totalTxIdle            0                       # Total number of TxIdle written to ISR (Count)
testsys.pci_devices4.EtherDevice.coalescedTxIdle          nan                       # Average number of TxIdle's coalesced into each post ((Count/Count))
testsys.pci_devices4.EtherDevice.postedTxDesc            0                       # Number of TxDesc interrupts posted to CPU (Count)
testsys.pci_devices4.EtherDevice.totalTxDesc            0                       # Total number of TxDesc written to ISR (Count)
testsys.pci_devices4.EtherDevice.coalescedTxDesc          nan                       # Average number of TxDesc's coalesced into each post ((Count/Count))
testsys.pci_devices4.EtherDevice.postedRxOrn            0                       # Number of RxOrn posted to CPU (Count)
testsys.pci_devices4.EtherDevice.totalRxOrn            0                       # Total number of RxOrn written to ISR (Count)
testsys.pci_devices4.EtherDevice.coalescedRxOrn          nan                       # Average number of RxOrn's coalesced into each post ((Count/Count))
testsys.pci_devices4.EtherDevice.coalescedTotal          nan                       # Average number of interrupts coalesced into each post ((Count/Count))
testsys.pci_devices4.EtherDevice.droppedPackets            0                       # Number of packets dropped (Count)
testsys.pci_devices4.power_state.pwrStateResidencyTicks::UNDEFINED 787580865500                       # Cumulative time (in ticks) in various power states (Tick)
testsys.realview.bootmem.power_state.pwrStateResidencyTicks::UNDEFINED 787580865500                       # Cumulative time (in ticks) in various power states (Tick)
testsys.realview.clock24MHz.clock               41667                       # Clock period in ticks (Tick)
testsys.realview.clock32KHz.clock            31250000                       # Clock period in ticks (Tick)
testsys.realview.dcc.osc_cpu.clock              16667                       # Clock period in ticks (Tick)
testsys.realview.dcc.osc_ddr.clock              25000                       # Clock period in ticks (Tick)
testsys.realview.dcc.osc_hsbm.clock             25000                       # Clock period in ticks (Tick)
testsys.realview.dcc.osc_pxl.clock              42105                       # Clock period in ticks (Tick)
testsys.realview.dcc.osc_smb.clock              20000                       # Clock period in ticks (Tick)
testsys.realview.dcc.osc_sys.clock              16667                       # Clock period in ticks (Tick)
testsys.realview.el2_watchdog.power_state.pwrStateResidencyTicks::UNDEFINED 787580865500                       # Cumulative time (in ticks) in various power states (Tick)
testsys.realview.energy_ctrl.power_state.pwrStateResidencyTicks::UNDEFINED 787580865500                       # Cumulative time (in ticks) in various power states (Tick)
testsys.realview.flash0.power_state.pwrStateResidencyTicks::UNDEFINED 787580865500                       # Cumulative time (in ticks) in various power states (Tick)
testsys.realview.flash1.power_state.pwrStateResidencyTicks::UNDEFINED 787580865500                       # Cumulative time (in ticks) in various power states (Tick)
testsys.realview.generic_timer_mem.frames0.power_state.pwrStateResidencyTicks::UNDEFINED 787580865500                       # Cumulative time (in ticks) in various power states (Tick)
testsys.realview.generic_timer_mem.frames1.power_state.pwrStateResidencyTicks::UNDEFINED 787580865500                       # Cumulative time (in ticks) in various power states (Tick)
testsys.realview.generic_timer_mem.power_state.pwrStateResidencyTicks::UNDEFINED 787580865500                       # Cumulative time (in ticks) in various power states (Tick)
testsys.realview.gic.power_state.pwrStateResidencyTicks::UNDEFINED 787580865500                       # Cumulative time (in ticks) in various power states (Tick)
testsys.realview.gicv2m.power_state.pwrStateResidencyTicks::UNDEFINED 787580865500                       # Cumulative time (in ticks) in various power states (Tick)
testsys.realview.io_voltage.voltage          3.300000                       # Voltage in Volts (Volt)
testsys.realview.kmi0.power_state.pwrStateResidencyTicks::UNDEFINED 787580865500                       # Cumulative time (in ticks) in various power states (Tick)
testsys.realview.kmi1.power_state.pwrStateResidencyTicks::UNDEFINED 787580865500                       # Cumulative time (in ticks) in various power states (Tick)
testsys.realview.mcc.osc_clcd.clock             42105                       # Clock period in ticks (Tick)
testsys.realview.mcc.osc_mcc.clock              20000                       # Clock period in ticks (Tick)
testsys.realview.mcc.osc_peripheral.clock        41667                       # Clock period in ticks (Tick)
testsys.realview.mcc.osc_system_bus.clock        41667                       # Clock period in ticks (Tick)
testsys.realview.non_trusted_sram.power_state.pwrStateResidencyTicks::UNDEFINED 787580865500                       # Cumulative time (in ticks) in various power states (Tick)
testsys.realview.pci_host.power_state.pwrStateResidencyTicks::UNDEFINED 787580865500                       # Cumulative time (in ticks) in various power states (Tick)
testsys.realview.pwr_ctrl.power_state.pwrStateResidencyTicks::UNDEFINED 787580865500                       # Cumulative time (in ticks) in various power states (Tick)
testsys.realview.realview_io.power_state.pwrStateResidencyTicks::UNDEFINED 787580865500                       # Cumulative time (in ticks) in various power states (Tick)
testsys.realview.rtc.power_state.pwrStateResidencyTicks::UNDEFINED 787580865500                       # Cumulative time (in ticks) in various power states (Tick)
testsys.realview.system_watchdog.power_state.pwrStateResidencyTicks::UNDEFINED 787580865500                       # Cumulative time (in ticks) in various power states (Tick)
testsys.realview.trusted_sram.power_state.pwrStateResidencyTicks::UNDEFINED 787580865500                       # Cumulative time (in ticks) in various power states (Tick)
testsys.realview.trusted_watchdog.power_state.pwrStateResidencyTicks::UNDEFINED 787580865500                       # Cumulative time (in ticks) in various power states (Tick)
testsys.realview.uart0.power_state.pwrStateResidencyTicks::UNDEFINED 787580865500                       # Cumulative time (in ticks) in various power states (Tick)
testsys.realview.uart1.power_state.pwrStateResidencyTicks::UNDEFINED 787580865500                       # Cumulative time (in ticks) in various power states (Tick)
testsys.realview.uart2.power_state.pwrStateResidencyTicks::UNDEFINED 787580865500                       # Cumulative time (in ticks) in various power states (Tick)
testsys.realview.uart3.power_state.pwrStateResidencyTicks::UNDEFINED 787580865500                       # Cumulative time (in ticks) in various power states (Tick)
testsys.realview.vgic.power_state.pwrStateResidencyTicks::UNDEFINED 787580865500                       # Cumulative time (in ticks) in various power states (Tick)
testsys.realview.vio0.power_state.pwrStateResidencyTicks::UNDEFINED 787580865500                       # Cumulative time (in ticks) in various power states (Tick)
testsys.realview.vio1.power_state.pwrStateResidencyTicks::UNDEFINED 787580865500                       # Cumulative time (in ticks) in various power states (Tick)
testsys.realview.vram.power_state.pwrStateResidencyTicks::UNDEFINED 787580865500                       # Cumulative time (in ticks) in various power states (Tick)
testsys.realview.watchdog.power_state.pwrStateResidencyTicks::UNDEFINED 787580865500                       # Cumulative time (in ticks) in various power states (Tick)
testsys.voltage_domain.voltage                      1                       # Voltage in Volts (Volt)
testsys.workload.inst.arm                           0                       # number of arm instructions executed (Count)
testsys.workload.inst.quiesce                    8527                       # number of quiesce instructions executed (Count)

---------- End Simulation Statistics   ----------
