
---------- Begin Simulation Statistics ----------
simSeconds                                   0.006434                       # Number of seconds simulated (Second)
simTicks                                   6433906500                       # Number of ticks simulated (Tick)
finalTick                                496335937000                       # Number of ticks from beginning of simulation (restored from checkpoints and never reset) (Tick)
simFreq                                  1000000000000                       # The number of ticks per simulated second ((Tick/Second))
hostSeconds                                     57.43                       # Real time elapsed on the host (Second)
hostTickRate                                112026717                       # The number of ticks simulated per host second (ticks/s) ((Tick/Second))
hostMemory                                    3058696                       # Number of bytes of host memory used (Byte)
simInsts                                     21223750                       # Number of instructions simulated (Count)
simOps                                       22955234                       # Number of ops (including micro ops) simulated (Count)
hostInstRate                                   369546                       # Simulator instruction rate (inst/s) ((Count/Second))
hostOpRate                                     399694                       # Simulator op (including micro ops) rate (op/s) ((Count/Second))
testsys.clk_domain.clock                         1000                       # Clock period in ticks (Tick)
testsys.cpu_cluster.clk_domain.clock              250                       # Clock period in ticks (Tick)
testsys.cpu_cluster.cpus0.numCycles            650115                       # Number of cpu cycles simulated (Cycle)
testsys.cpu_cluster.cpus0.numWorkItemsStarted            0                       # Number of work items this cpu started (Count)
testsys.cpu_cluster.cpus0.numWorkItemsCompleted            0                       # Number of work items this cpu completed (Count)
testsys.cpu_cluster.cpus0.numInsts              82631                       # Number of instructions committed (Count)
testsys.cpu_cluster.cpus0.numOps                99817                       # Number of ops (including micro ops) committed (Count)
testsys.cpu_cluster.cpus0.numDiscardedOps         6603                       # Number of ops (including micro ops) which were discarded before commit (Count)
testsys.cpu_cluster.cpus0.numFetchSuspends           66                       # Number of times Execute suspended instruction fetching (Count)
testsys.cpu_cluster.cpus0.quiesceCycles      25391690                       # Total number of cycles that CPU has spent quiesced or waiting for an interrupt (Cycle)
testsys.cpu_cluster.cpus0.cpi                7.867689                       # CPI: cycles per instruction ((Cycle/Count))
testsys.cpu_cluster.cpus0.ipc                0.127102                       # IPC: instructions per cycle ((Count/Cycle))
testsys.cpu_cluster.cpus0.committedInstType_0::No_OpClass            0      0.00%      0.00% # Class of committed instruction (Count)
testsys.cpu_cluster.cpus0.committedInstType_0::IntAlu        65637     65.76%     65.76% # Class of committed instruction (Count)
testsys.cpu_cluster.cpus0.committedInstType_0::IntMult          324      0.32%     66.08% # Class of committed instruction (Count)
testsys.cpu_cluster.cpus0.committedInstType_0::IntDiv           25      0.03%     66.11% # Class of committed instruction (Count)
testsys.cpu_cluster.cpus0.committedInstType_0::FloatAdd            0      0.00%     66.11% # Class of committed instruction (Count)
testsys.cpu_cluster.cpus0.committedInstType_0::FloatCmp            0      0.00%     66.11% # Class of committed instruction (Count)
testsys.cpu_cluster.cpus0.committedInstType_0::FloatCvt            0      0.00%     66.11% # Class of committed instruction (Count)
testsys.cpu_cluster.cpus0.committedInstType_0::FloatMult            0      0.00%     66.11% # Class of committed instruction (Count)
testsys.cpu_cluster.cpus0.committedInstType_0::FloatMultAcc            0      0.00%     66.11% # Class of committed instruction (Count)
testsys.cpu_cluster.cpus0.committedInstType_0::FloatDiv            0      0.00%     66.11% # Class of committed instruction (Count)
testsys.cpu_cluster.cpus0.committedInstType_0::FloatMisc            0      0.00%     66.11% # Class of committed instruction (Count)
testsys.cpu_cluster.cpus0.committedInstType_0::FloatSqrt            0      0.00%     66.11% # Class of committed instruction (Count)
testsys.cpu_cluster.cpus0.committedInstType_0::SimdAdd            0      0.00%     66.11% # Class of committed instruction (Count)
testsys.cpu_cluster.cpus0.committedInstType_0::SimdAddAcc            0      0.00%     66.11% # Class of committed instruction (Count)
testsys.cpu_cluster.cpus0.committedInstType_0::SimdAlu            0      0.00%     66.11% # Class of committed instruction (Count)
testsys.cpu_cluster.cpus0.committedInstType_0::SimdCmp            0      0.00%     66.11% # Class of committed instruction (Count)
testsys.cpu_cluster.cpus0.committedInstType_0::SimdCvt            0      0.00%     66.11% # Class of committed instruction (Count)
testsys.cpu_cluster.cpus0.committedInstType_0::SimdMisc            0      0.00%     66.11% # Class of committed instruction (Count)
testsys.cpu_cluster.cpus0.committedInstType_0::SimdMult            0      0.00%     66.11% # Class of committed instruction (Count)
testsys.cpu_cluster.cpus0.committedInstType_0::SimdMultAcc            0      0.00%     66.11% # Class of committed instruction (Count)
testsys.cpu_cluster.cpus0.committedInstType_0::SimdShift            0      0.00%     66.11% # Class of committed instruction (Count)
testsys.cpu_cluster.cpus0.committedInstType_0::SimdShiftAcc            0      0.00%     66.11% # Class of committed instruction (Count)
testsys.cpu_cluster.cpus0.committedInstType_0::SimdDiv            0      0.00%     66.11% # Class of committed instruction (Count)
testsys.cpu_cluster.cpus0.committedInstType_0::SimdSqrt            0      0.00%     66.11% # Class of committed instruction (Count)
testsys.cpu_cluster.cpus0.committedInstType_0::SimdFloatAdd            0      0.00%     66.11% # Class of committed instruction (Count)
testsys.cpu_cluster.cpus0.committedInstType_0::SimdFloatAlu            0      0.00%     66.11% # Class of committed instruction (Count)
testsys.cpu_cluster.cpus0.committedInstType_0::SimdFloatCmp            0      0.00%     66.11% # Class of committed instruction (Count)
testsys.cpu_cluster.cpus0.committedInstType_0::SimdFloatCvt            0      0.00%     66.11% # Class of committed instruction (Count)
testsys.cpu_cluster.cpus0.committedInstType_0::SimdFloatDiv            0      0.00%     66.11% # Class of committed instruction (Count)
testsys.cpu_cluster.cpus0.committedInstType_0::SimdFloatMisc            0      0.00%     66.11% # Class of committed instruction (Count)
testsys.cpu_cluster.cpus0.committedInstType_0::SimdFloatMult            0      0.00%     66.11% # Class of committed instruction (Count)
testsys.cpu_cluster.cpus0.committedInstType_0::SimdFloatMultAcc            0      0.00%     66.11% # Class of committed instruction (Count)
testsys.cpu_cluster.cpus0.committedInstType_0::SimdFloatSqrt            0      0.00%     66.11% # Class of committed instruction (Count)
testsys.cpu_cluster.cpus0.committedInstType_0::SimdReduceAdd            0      0.00%     66.11% # Class of committed instruction (Count)
testsys.cpu_cluster.cpus0.committedInstType_0::SimdReduceAlu            0      0.00%     66.11% # Class of committed instruction (Count)
testsys.cpu_cluster.cpus0.committedInstType_0::SimdReduceCmp            0      0.00%     66.11% # Class of committed instruction (Count)
testsys.cpu_cluster.cpus0.committedInstType_0::SimdFloatReduceAdd            0      0.00%     66.11% # Class of committed instruction (Count)
testsys.cpu_cluster.cpus0.committedInstType_0::SimdFloatReduceCmp            0      0.00%     66.11% # Class of committed instruction (Count)
testsys.cpu_cluster.cpus0.committedInstType_0::SimdAes            0      0.00%     66.11% # Class of committed instruction (Count)
testsys.cpu_cluster.cpus0.committedInstType_0::SimdAesMix            0      0.00%     66.11% # Class of committed instruction (Count)
testsys.cpu_cluster.cpus0.committedInstType_0::SimdSha1Hash            0      0.00%     66.11% # Class of committed instruction (Count)
testsys.cpu_cluster.cpus0.committedInstType_0::SimdSha1Hash2            0      0.00%     66.11% # Class of committed instruction (Count)
testsys.cpu_cluster.cpus0.committedInstType_0::SimdSha256Hash            0      0.00%     66.11% # Class of committed instruction (Count)
testsys.cpu_cluster.cpus0.committedInstType_0::SimdSha256Hash2            0      0.00%     66.11% # Class of committed instruction (Count)
testsys.cpu_cluster.cpus0.committedInstType_0::SimdShaSigma2            0      0.00%     66.11% # Class of committed instruction (Count)
testsys.cpu_cluster.cpus0.committedInstType_0::SimdShaSigma3            0      0.00%     66.11% # Class of committed instruction (Count)
testsys.cpu_cluster.cpus0.committedInstType_0::SimdPredAlu            0      0.00%     66.11% # Class of committed instruction (Count)
testsys.cpu_cluster.cpus0.committedInstType_0::MemRead        18923     18.96%     85.06% # Class of committed instruction (Count)
testsys.cpu_cluster.cpus0.committedInstType_0::MemWrite        14908     14.94%    100.00% # Class of committed instruction (Count)
testsys.cpu_cluster.cpus0.committedInstType_0::FloatMemRead            0      0.00%    100.00% # Class of committed instruction (Count)
testsys.cpu_cluster.cpus0.committedInstType_0::FloatMemWrite            0      0.00%    100.00% # Class of committed instruction (Count)
testsys.cpu_cluster.cpus0.committedInstType_0::IprAccess            0      0.00%    100.00% # Class of committed instruction (Count)
testsys.cpu_cluster.cpus0.committedInstType_0::InstPrefetch            0      0.00%    100.00% # Class of committed instruction (Count)
testsys.cpu_cluster.cpus0.committedInstType_0::total        99817                       # Class of committed instruction (Count)
testsys.cpu_cluster.cpus0.branchPred.lookups        22385                       # Number of BP lookups (Count)
testsys.cpu_cluster.cpus0.branchPred.condPredicted        11393                       # Number of conditional branches predicted (Count)
testsys.cpu_cluster.cpus0.branchPred.condIncorrect         2016                       # Number of conditional branches incorrect (Count)
testsys.cpu_cluster.cpus0.branchPred.BTBLookups         9258                       # Number of BTB lookups (Count)
testsys.cpu_cluster.cpus0.branchPred.BTBHits         8046                       # Number of BTB hits (Count)
testsys.cpu_cluster.cpus0.branchPred.BTBHitRatio     0.869086                       # BTB Hit Ratio (Ratio)
testsys.cpu_cluster.cpus0.branchPred.RASUsed         5051                       # Number of times the RAS was used to get a target. (Count)
testsys.cpu_cluster.cpus0.branchPred.RASIncorrect         1048                       # Number of incorrect RAS predictions. (Count)
testsys.cpu_cluster.cpus0.branchPred.indirectLookups          469                       # Number of indirect predictor lookups. (Count)
testsys.cpu_cluster.cpus0.branchPred.indirectHits          331                       # Number of indirect target hits. (Count)
testsys.cpu_cluster.cpus0.branchPred.indirectMisses          138                       # Number of indirect misses. (Count)
testsys.cpu_cluster.cpus0.branchPred.indirectMispredicted           97                       # Number of mispredicted indirect branches. (Count)
testsys.cpu_cluster.cpus0.dcache.demandHits::cpu_cluster.cpus0.data        33177                       # number of demand (read+write) hits (Count)
testsys.cpu_cluster.cpus0.dcache.demandHits::total        33177                       # number of demand (read+write) hits (Count)
testsys.cpu_cluster.cpus0.dcache.overallHits::cpu_cluster.cpus0.data        33177                       # number of overall hits (Count)
testsys.cpu_cluster.cpus0.dcache.overallHits::total        33177                       # number of overall hits (Count)
testsys.cpu_cluster.cpus0.dcache.demandMisses::cpu_cluster.cpus0.data         1086                       # number of demand (read+write) misses (Count)
testsys.cpu_cluster.cpus0.dcache.demandMisses::total         1086                       # number of demand (read+write) misses (Count)
testsys.cpu_cluster.cpus0.dcache.overallMisses::cpu_cluster.cpus0.data         1086                       # number of overall misses (Count)
testsys.cpu_cluster.cpus0.dcache.overallMisses::total         1086                       # number of overall misses (Count)
testsys.cpu_cluster.cpus0.dcache.demandMissLatency::cpu_cluster.cpus0.data     20568000                       # number of demand (read+write) miss ticks (Tick)
testsys.cpu_cluster.cpus0.dcache.demandMissLatency::total     20568000                       # number of demand (read+write) miss ticks (Tick)
testsys.cpu_cluster.cpus0.dcache.overallMissLatency::cpu_cluster.cpus0.data     20568000                       # number of overall miss ticks (Tick)
testsys.cpu_cluster.cpus0.dcache.overallMissLatency::total     20568000                       # number of overall miss ticks (Tick)
testsys.cpu_cluster.cpus0.dcache.demandAccesses::cpu_cluster.cpus0.data        34263                       # number of demand (read+write) accesses (Count)
testsys.cpu_cluster.cpus0.dcache.demandAccesses::total        34263                       # number of demand (read+write) accesses (Count)
testsys.cpu_cluster.cpus0.dcache.overallAccesses::cpu_cluster.cpus0.data        34263                       # number of overall (read+write) accesses (Count)
testsys.cpu_cluster.cpus0.dcache.overallAccesses::total        34263                       # number of overall (read+write) accesses (Count)
testsys.cpu_cluster.cpus0.dcache.demandMissRate::cpu_cluster.cpus0.data     0.031696                       # miss rate for demand accesses (Ratio)
testsys.cpu_cluster.cpus0.dcache.demandMissRate::total     0.031696                       # miss rate for demand accesses (Ratio)
testsys.cpu_cluster.cpus0.dcache.overallMissRate::cpu_cluster.cpus0.data     0.031696                       # miss rate for overall accesses (Ratio)
testsys.cpu_cluster.cpus0.dcache.overallMissRate::total     0.031696                       # miss rate for overall accesses (Ratio)
testsys.cpu_cluster.cpus0.dcache.demandAvgMissLatency::cpu_cluster.cpus0.data 18939.226519                       # average overall miss latency ((Cycle/Count))
testsys.cpu_cluster.cpus0.dcache.demandAvgMissLatency::total 18939.226519                       # average overall miss latency ((Cycle/Count))
testsys.cpu_cluster.cpus0.dcache.overallAvgMissLatency::cpu_cluster.cpus0.data 18939.226519                       # average overall miss latency ((Cycle/Count))
testsys.cpu_cluster.cpus0.dcache.overallAvgMissLatency::total 18939.226519                       # average overall miss latency ((Cycle/Count))
testsys.cpu_cluster.cpus0.dcache.blockedCycles::no_mshrs            0                       # number of cycles access was blocked (Cycle)
testsys.cpu_cluster.cpus0.dcache.blockedCycles::no_targets            0                       # number of cycles access was blocked (Cycle)
testsys.cpu_cluster.cpus0.dcache.blockedCauses::no_mshrs            0                       # number of times access was blocked (Count)
testsys.cpu_cluster.cpus0.dcache.blockedCauses::no_targets            0                       # number of times access was blocked (Count)
testsys.cpu_cluster.cpus0.dcache.avgBlocked::no_mshrs          nan                       # average number of cycles each access was blocked ((Cycle/Count))
testsys.cpu_cluster.cpus0.dcache.avgBlocked::no_targets          nan                       # average number of cycles each access was blocked ((Cycle/Count))
testsys.cpu_cluster.cpus0.dcache.writebacks::writebacks          226                       # number of writebacks (Count)
testsys.cpu_cluster.cpus0.dcache.writebacks::total          226                       # number of writebacks (Count)
testsys.cpu_cluster.cpus0.dcache.demandMshrHits::cpu_cluster.cpus0.data           73                       # number of demand (read+write) MSHR hits (Count)
testsys.cpu_cluster.cpus0.dcache.demandMshrHits::total           73                       # number of demand (read+write) MSHR hits (Count)
testsys.cpu_cluster.cpus0.dcache.overallMshrHits::cpu_cluster.cpus0.data           73                       # number of overall MSHR hits (Count)
testsys.cpu_cluster.cpus0.dcache.overallMshrHits::total           73                       # number of overall MSHR hits (Count)
testsys.cpu_cluster.cpus0.dcache.demandMshrMisses::cpu_cluster.cpus0.data         1013                       # number of demand (read+write) MSHR misses (Count)
testsys.cpu_cluster.cpus0.dcache.demandMshrMisses::total         1013                       # number of demand (read+write) MSHR misses (Count)
testsys.cpu_cluster.cpus0.dcache.overallMshrMisses::cpu_cluster.cpus0.data         1013                       # number of overall MSHR misses (Count)
testsys.cpu_cluster.cpus0.dcache.overallMshrMisses::total         1013                       # number of overall MSHR misses (Count)
testsys.cpu_cluster.cpus0.dcache.overallMshrUncacheable::cpu_cluster.cpus0.data           65                       # number of overall MSHR uncacheable misses (Count)
testsys.cpu_cluster.cpus0.dcache.overallMshrUncacheable::total           65                       # number of overall MSHR uncacheable misses (Count)
testsys.cpu_cluster.cpus0.dcache.demandMshrMissLatency::cpu_cluster.cpus0.data     19293500                       # number of demand (read+write) MSHR miss ticks (Tick)
testsys.cpu_cluster.cpus0.dcache.demandMshrMissLatency::total     19293500                       # number of demand (read+write) MSHR miss ticks (Tick)
testsys.cpu_cluster.cpus0.dcache.overallMshrMissLatency::cpu_cluster.cpus0.data     19293500                       # number of overall MSHR miss ticks (Tick)
testsys.cpu_cluster.cpus0.dcache.overallMshrMissLatency::total     19293500                       # number of overall MSHR miss ticks (Tick)
testsys.cpu_cluster.cpus0.dcache.overallMshrUncacheableLatency::cpu_cluster.cpus0.data      2659750                       # number of overall MSHR uncacheable ticks (Tick)
testsys.cpu_cluster.cpus0.dcache.overallMshrUncacheableLatency::total      2659750                       # number of overall MSHR uncacheable ticks (Tick)
testsys.cpu_cluster.cpus0.dcache.demandMshrMissRate::cpu_cluster.cpus0.data     0.029565                       # mshr miss ratio for demand accesses (Ratio)
testsys.cpu_cluster.cpus0.dcache.demandMshrMissRate::total     0.029565                       # mshr miss ratio for demand accesses (Ratio)
testsys.cpu_cluster.cpus0.dcache.overallMshrMissRate::cpu_cluster.cpus0.data     0.029565                       # mshr miss ratio for overall accesses (Ratio)
testsys.cpu_cluster.cpus0.dcache.overallMshrMissRate::total     0.029565                       # mshr miss ratio for overall accesses (Ratio)
testsys.cpu_cluster.cpus0.dcache.demandAvgMshrMissLatency::cpu_cluster.cpus0.data 19045.903258                       # average overall mshr miss latency ((Cycle/Count))
testsys.cpu_cluster.cpus0.dcache.demandAvgMshrMissLatency::total 19045.903258                       # average overall mshr miss latency ((Cycle/Count))
testsys.cpu_cluster.cpus0.dcache.overallAvgMshrMissLatency::cpu_cluster.cpus0.data 19045.903258                       # average overall mshr miss latency ((Cycle/Count))
testsys.cpu_cluster.cpus0.dcache.overallAvgMshrMissLatency::total 19045.903258                       # average overall mshr miss latency ((Cycle/Count))
testsys.cpu_cluster.cpus0.dcache.overallAvgMshrUncacheableLatency::cpu_cluster.cpus0.data 40919.230769                       # average overall mshr uncacheable latency ((Cycle/Count))
testsys.cpu_cluster.cpus0.dcache.overallAvgMshrUncacheableLatency::total 40919.230769                       # average overall mshr uncacheable latency ((Cycle/Count))
testsys.cpu_cluster.cpus0.dcache.replacements          471                       # number of replacements (Count)
testsys.cpu_cluster.cpus0.dcache.LoadLockedReq.hits::cpu_cluster.cpus0.data            7                       # number of LoadLockedReq hits (Count)
testsys.cpu_cluster.cpus0.dcache.LoadLockedReq.hits::total            7                       # number of LoadLockedReq hits (Count)
testsys.cpu_cluster.cpus0.dcache.LoadLockedReq.accesses::cpu_cluster.cpus0.data            7                       # number of LoadLockedReq accesses(hits+misses) (Count)
testsys.cpu_cluster.cpus0.dcache.LoadLockedReq.accesses::total            7                       # number of LoadLockedReq accesses(hits+misses) (Count)
testsys.cpu_cluster.cpus0.dcache.ReadReq.hits::cpu_cluster.cpus0.data        19162                       # number of ReadReq hits (Count)
testsys.cpu_cluster.cpus0.dcache.ReadReq.hits::total        19162                       # number of ReadReq hits (Count)
testsys.cpu_cluster.cpus0.dcache.ReadReq.misses::cpu_cluster.cpus0.data          716                       # number of ReadReq misses (Count)
testsys.cpu_cluster.cpus0.dcache.ReadReq.misses::total          716                       # number of ReadReq misses (Count)
testsys.cpu_cluster.cpus0.dcache.ReadReq.missLatency::cpu_cluster.cpus0.data     17816500                       # number of ReadReq miss ticks (Tick)
testsys.cpu_cluster.cpus0.dcache.ReadReq.missLatency::total     17816500                       # number of ReadReq miss ticks (Tick)
testsys.cpu_cluster.cpus0.dcache.ReadReq.accesses::cpu_cluster.cpus0.data        19878                       # number of ReadReq accesses(hits+misses) (Count)
testsys.cpu_cluster.cpus0.dcache.ReadReq.accesses::total        19878                       # number of ReadReq accesses(hits+misses) (Count)
testsys.cpu_cluster.cpus0.dcache.ReadReq.missRate::cpu_cluster.cpus0.data     0.036020                       # miss rate for ReadReq accesses (Ratio)
testsys.cpu_cluster.cpus0.dcache.ReadReq.missRate::total     0.036020                       # miss rate for ReadReq accesses (Ratio)
testsys.cpu_cluster.cpus0.dcache.ReadReq.avgMissLatency::cpu_cluster.cpus0.data 24883.379888                       # average ReadReq miss latency ((Tick/Count))
testsys.cpu_cluster.cpus0.dcache.ReadReq.avgMissLatency::total 24883.379888                       # average ReadReq miss latency ((Tick/Count))
testsys.cpu_cluster.cpus0.dcache.ReadReq.mshrHits::cpu_cluster.cpus0.data           31                       # number of ReadReq MSHR hits (Count)
testsys.cpu_cluster.cpus0.dcache.ReadReq.mshrHits::total           31                       # number of ReadReq MSHR hits (Count)
testsys.cpu_cluster.cpus0.dcache.ReadReq.mshrMisses::cpu_cluster.cpus0.data          685                       # number of ReadReq MSHR misses (Count)
testsys.cpu_cluster.cpus0.dcache.ReadReq.mshrMisses::total          685                       # number of ReadReq MSHR misses (Count)
testsys.cpu_cluster.cpus0.dcache.ReadReq.mshrUncacheable::cpu_cluster.cpus0.data           45                       # number of ReadReq MSHR uncacheable (Count)
testsys.cpu_cluster.cpus0.dcache.ReadReq.mshrUncacheable::total           45                       # number of ReadReq MSHR uncacheable (Count)
testsys.cpu_cluster.cpus0.dcache.ReadReq.mshrMissLatency::cpu_cluster.cpus0.data     17340000                       # number of ReadReq MSHR miss ticks (Tick)
testsys.cpu_cluster.cpus0.dcache.ReadReq.mshrMissLatency::total     17340000                       # number of ReadReq MSHR miss ticks (Tick)
testsys.cpu_cluster.cpus0.dcache.ReadReq.mshrUncacheableLatency::cpu_cluster.cpus0.data      2659750                       # number of ReadReq MSHR uncacheable ticks (Tick)
testsys.cpu_cluster.cpus0.dcache.ReadReq.mshrUncacheableLatency::total      2659750                       # number of ReadReq MSHR uncacheable ticks (Tick)
testsys.cpu_cluster.cpus0.dcache.ReadReq.mshrMissRate::cpu_cluster.cpus0.data     0.034460                       # mshr miss rate for ReadReq accesses (Ratio)
testsys.cpu_cluster.cpus0.dcache.ReadReq.mshrMissRate::total     0.034460                       # mshr miss rate for ReadReq accesses (Ratio)
testsys.cpu_cluster.cpus0.dcache.ReadReq.avgMshrMissLatency::cpu_cluster.cpus0.data 25313.868613                       # average ReadReq mshr miss latency ((Tick/Count))
testsys.cpu_cluster.cpus0.dcache.ReadReq.avgMshrMissLatency::total 25313.868613                       # average ReadReq mshr miss latency ((Tick/Count))
testsys.cpu_cluster.cpus0.dcache.ReadReq.avgMshrUncacheableLatency::cpu_cluster.cpus0.data 59105.555556                       # average ReadReq mshr uncacheable latency ((Tick/Count))
testsys.cpu_cluster.cpus0.dcache.ReadReq.avgMshrUncacheableLatency::total 59105.555556                       # average ReadReq mshr uncacheable latency ((Tick/Count))
testsys.cpu_cluster.cpus0.dcache.SwapReq.hits::cpu_cluster.cpus0.data          412                       # number of SwapReq hits (Count)
testsys.cpu_cluster.cpus0.dcache.SwapReq.hits::total          412                       # number of SwapReq hits (Count)
testsys.cpu_cluster.cpus0.dcache.SwapReq.misses::cpu_cluster.cpus0.data           91                       # number of SwapReq misses (Count)
testsys.cpu_cluster.cpus0.dcache.SwapReq.misses::total           91                       # number of SwapReq misses (Count)
testsys.cpu_cluster.cpus0.dcache.SwapReq.missLatency::cpu_cluster.cpus0.data       746000                       # number of SwapReq miss ticks (Tick)
testsys.cpu_cluster.cpus0.dcache.SwapReq.missLatency::total       746000                       # number of SwapReq miss ticks (Tick)
testsys.cpu_cluster.cpus0.dcache.SwapReq.accesses::cpu_cluster.cpus0.data          503                       # number of SwapReq accesses(hits+misses) (Count)
testsys.cpu_cluster.cpus0.dcache.SwapReq.accesses::total          503                       # number of SwapReq accesses(hits+misses) (Count)
testsys.cpu_cluster.cpus0.dcache.SwapReq.missRate::cpu_cluster.cpus0.data     0.180915                       # miss rate for SwapReq accesses (Ratio)
testsys.cpu_cluster.cpus0.dcache.SwapReq.missRate::total     0.180915                       # miss rate for SwapReq accesses (Ratio)
testsys.cpu_cluster.cpus0.dcache.SwapReq.avgMissLatency::cpu_cluster.cpus0.data  8197.802198                       # average SwapReq miss latency ((Tick/Count))
testsys.cpu_cluster.cpus0.dcache.SwapReq.avgMissLatency::total  8197.802198                       # average SwapReq miss latency ((Tick/Count))
testsys.cpu_cluster.cpus0.dcache.SwapReq.mshrMisses::cpu_cluster.cpus0.data           91                       # number of SwapReq MSHR misses (Count)
testsys.cpu_cluster.cpus0.dcache.SwapReq.mshrMisses::total           91                       # number of SwapReq MSHR misses (Count)
testsys.cpu_cluster.cpus0.dcache.SwapReq.mshrMissLatency::cpu_cluster.cpus0.data       723250                       # number of SwapReq MSHR miss ticks (Tick)
testsys.cpu_cluster.cpus0.dcache.SwapReq.mshrMissLatency::total       723250                       # number of SwapReq MSHR miss ticks (Tick)
testsys.cpu_cluster.cpus0.dcache.SwapReq.mshrMissRate::cpu_cluster.cpus0.data     0.180915                       # mshr miss rate for SwapReq accesses (Ratio)
testsys.cpu_cluster.cpus0.dcache.SwapReq.mshrMissRate::total     0.180915                       # mshr miss rate for SwapReq accesses (Ratio)
testsys.cpu_cluster.cpus0.dcache.SwapReq.avgMshrMissLatency::cpu_cluster.cpus0.data  7947.802198                       # average SwapReq mshr miss latency ((Tick/Count))
testsys.cpu_cluster.cpus0.dcache.SwapReq.avgMshrMissLatency::total  7947.802198                       # average SwapReq mshr miss latency ((Tick/Count))
testsys.cpu_cluster.cpus0.dcache.WriteReq.hits::cpu_cluster.cpus0.data        14015                       # number of WriteReq hits (Count)
testsys.cpu_cluster.cpus0.dcache.WriteReq.hits::total        14015                       # number of WriteReq hits (Count)
testsys.cpu_cluster.cpus0.dcache.WriteReq.misses::cpu_cluster.cpus0.data          370                       # number of WriteReq misses (Count)
testsys.cpu_cluster.cpus0.dcache.WriteReq.misses::total          370                       # number of WriteReq misses (Count)
testsys.cpu_cluster.cpus0.dcache.WriteReq.missLatency::cpu_cluster.cpus0.data      2751500                       # number of WriteReq miss ticks (Tick)
testsys.cpu_cluster.cpus0.dcache.WriteReq.missLatency::total      2751500                       # number of WriteReq miss ticks (Tick)
testsys.cpu_cluster.cpus0.dcache.WriteReq.accesses::cpu_cluster.cpus0.data        14385                       # number of WriteReq accesses(hits+misses) (Count)
testsys.cpu_cluster.cpus0.dcache.WriteReq.accesses::total        14385                       # number of WriteReq accesses(hits+misses) (Count)
testsys.cpu_cluster.cpus0.dcache.WriteReq.missRate::cpu_cluster.cpus0.data     0.025721                       # miss rate for WriteReq accesses (Ratio)
testsys.cpu_cluster.cpus0.dcache.WriteReq.missRate::total     0.025721                       # miss rate for WriteReq accesses (Ratio)
testsys.cpu_cluster.cpus0.dcache.WriteReq.avgMissLatency::cpu_cluster.cpus0.data  7436.486486                       # average WriteReq miss latency ((Tick/Count))
testsys.cpu_cluster.cpus0.dcache.WriteReq.avgMissLatency::total  7436.486486                       # average WriteReq miss latency ((Tick/Count))
testsys.cpu_cluster.cpus0.dcache.WriteReq.mshrHits::cpu_cluster.cpus0.data           42                       # number of WriteReq MSHR hits (Count)
testsys.cpu_cluster.cpus0.dcache.WriteReq.mshrHits::total           42                       # number of WriteReq MSHR hits (Count)
testsys.cpu_cluster.cpus0.dcache.WriteReq.mshrMisses::cpu_cluster.cpus0.data          328                       # number of WriteReq MSHR misses (Count)
testsys.cpu_cluster.cpus0.dcache.WriteReq.mshrMisses::total          328                       # number of WriteReq MSHR misses (Count)
testsys.cpu_cluster.cpus0.dcache.WriteReq.mshrUncacheable::cpu_cluster.cpus0.data           20                       # number of WriteReq MSHR uncacheable (Count)
testsys.cpu_cluster.cpus0.dcache.WriteReq.mshrUncacheable::total           20                       # number of WriteReq MSHR uncacheable (Count)
testsys.cpu_cluster.cpus0.dcache.WriteReq.mshrMissLatency::cpu_cluster.cpus0.data      1953500                       # number of WriteReq MSHR miss ticks (Tick)
testsys.cpu_cluster.cpus0.dcache.WriteReq.mshrMissLatency::total      1953500                       # number of WriteReq MSHR miss ticks (Tick)
testsys.cpu_cluster.cpus0.dcache.WriteReq.mshrMissRate::cpu_cluster.cpus0.data     0.022802                       # mshr miss rate for WriteReq accesses (Ratio)
testsys.cpu_cluster.cpus0.dcache.WriteReq.mshrMissRate::total     0.022802                       # mshr miss rate for WriteReq accesses (Ratio)
testsys.cpu_cluster.cpus0.dcache.WriteReq.avgMshrMissLatency::cpu_cluster.cpus0.data  5955.792683                       # average WriteReq mshr miss latency ((Tick/Count))
testsys.cpu_cluster.cpus0.dcache.WriteReq.avgMshrMissLatency::total  5955.792683                       # average WriteReq mshr miss latency ((Tick/Count))
testsys.cpu_cluster.cpus0.dcache.power_state.pwrStateResidencyTicks::UNDEFINED 496335937000                       # Cumulative time (in ticks) in various power states (Tick)
testsys.cpu_cluster.cpus0.dcache.tags.tagsInUse   458.927715                       # Average ticks per tags in use ((Tick/Count))
testsys.cpu_cluster.cpus0.dcache.tags.totalRefs        62909                       # Total number of references to valid blocks. (Count)
testsys.cpu_cluster.cpus0.dcache.tags.sampledRefs         1264                       # Sample count of references to valid blocks. (Count)
testsys.cpu_cluster.cpus0.dcache.tags.avgRefs    49.769778                       # Average number of references to valid blocks. ((Count/Count))
testsys.cpu_cluster.cpus0.dcache.tags.warmupTick            0                       # The tick when the warmup percentage was hit. (Tick)
testsys.cpu_cluster.cpus0.dcache.tags.occupancies::cpu_cluster.cpus0.data   458.927715                       # Average occupied blocks per tick, per requestor ((Count/Tick))
testsys.cpu_cluster.cpus0.dcache.tags.avgOccs::cpu_cluster.cpus0.data     0.896343                       # Average percentage of cache occupancy ((Ratio/Tick))
testsys.cpu_cluster.cpus0.dcache.tags.avgOccs::total     0.896343                       # Average percentage of cache occupancy ((Ratio/Tick))
testsys.cpu_cluster.cpus0.dcache.tags.occupanciesTaskId::1024          470                       # Occupied blocks per task id (Count)
testsys.cpu_cluster.cpus0.dcache.tags.ageTaskId_1024::3          434                       # Occupied blocks per task id, per block age (Count)
testsys.cpu_cluster.cpus0.dcache.tags.ageTaskId_1024::4           36                       # Occupied blocks per task id, per block age (Count)
testsys.cpu_cluster.cpus0.dcache.tags.ratioOccsTaskId::1024     0.917969                       # Ratio of occupied blocks and all blocks, per task id (Ratio)
testsys.cpu_cluster.cpus0.dcache.tags.tagAccesses        70374                       # Number of tag accesses (Count)
testsys.cpu_cluster.cpus0.dcache.tags.dataAccesses        70374                       # Number of data accesses (Count)
testsys.cpu_cluster.cpus0.dcache.tags.power_state.pwrStateResidencyTicks::UNDEFINED 496335937000                       # Cumulative time (in ticks) in various power states (Tick)
testsys.cpu_cluster.cpus0.dtb_walker_cache.demandHits::cpu_cluster.cpus0.mmu.dtb_walker          936                       # number of demand (read+write) hits (Count)
testsys.cpu_cluster.cpus0.dtb_walker_cache.demandHits::total          936                       # number of demand (read+write) hits (Count)
testsys.cpu_cluster.cpus0.dtb_walker_cache.overallHits::cpu_cluster.cpus0.mmu.dtb_walker          936                       # number of overall hits (Count)
testsys.cpu_cluster.cpus0.dtb_walker_cache.overallHits::total          936                       # number of overall hits (Count)
testsys.cpu_cluster.cpus0.dtb_walker_cache.demandMisses::cpu_cluster.cpus0.mmu.dtb_walker          597                       # number of demand (read+write) misses (Count)
testsys.cpu_cluster.cpus0.dtb_walker_cache.demandMisses::total          597                       # number of demand (read+write) misses (Count)
testsys.cpu_cluster.cpus0.dtb_walker_cache.overallMisses::cpu_cluster.cpus0.mmu.dtb_walker          597                       # number of overall misses (Count)
testsys.cpu_cluster.cpus0.dtb_walker_cache.overallMisses::total          597                       # number of overall misses (Count)
testsys.cpu_cluster.cpus0.dtb_walker_cache.demandMissLatency::cpu_cluster.cpus0.mmu.dtb_walker     22919653                       # number of demand (read+write) miss ticks (Tick)
testsys.cpu_cluster.cpus0.dtb_walker_cache.demandMissLatency::total     22919653                       # number of demand (read+write) miss ticks (Tick)
testsys.cpu_cluster.cpus0.dtb_walker_cache.overallMissLatency::cpu_cluster.cpus0.mmu.dtb_walker     22919653                       # number of overall miss ticks (Tick)
testsys.cpu_cluster.cpus0.dtb_walker_cache.overallMissLatency::total     22919653                       # number of overall miss ticks (Tick)
testsys.cpu_cluster.cpus0.dtb_walker_cache.demandAccesses::cpu_cluster.cpus0.mmu.dtb_walker         1533                       # number of demand (read+write) accesses (Count)
testsys.cpu_cluster.cpus0.dtb_walker_cache.demandAccesses::total         1533                       # number of demand (read+write) accesses (Count)
testsys.cpu_cluster.cpus0.dtb_walker_cache.overallAccesses::cpu_cluster.cpus0.mmu.dtb_walker         1533                       # number of overall (read+write) accesses (Count)
testsys.cpu_cluster.cpus0.dtb_walker_cache.overallAccesses::total         1533                       # number of overall (read+write) accesses (Count)
testsys.cpu_cluster.cpus0.dtb_walker_cache.demandMissRate::cpu_cluster.cpus0.mmu.dtb_walker     0.389432                       # miss rate for demand accesses (Ratio)
testsys.cpu_cluster.cpus0.dtb_walker_cache.demandMissRate::total     0.389432                       # miss rate for demand accesses (Ratio)
testsys.cpu_cluster.cpus0.dtb_walker_cache.overallMissRate::cpu_cluster.cpus0.mmu.dtb_walker     0.389432                       # miss rate for overall accesses (Ratio)
testsys.cpu_cluster.cpus0.dtb_walker_cache.overallMissRate::total     0.389432                       # miss rate for overall accesses (Ratio)
testsys.cpu_cluster.cpus0.dtb_walker_cache.demandAvgMissLatency::cpu_cluster.cpus0.mmu.dtb_walker 38391.378559                       # average overall miss latency ((Cycle/Count))
testsys.cpu_cluster.cpus0.dtb_walker_cache.demandAvgMissLatency::total 38391.378559                       # average overall miss latency ((Cycle/Count))
testsys.cpu_cluster.cpus0.dtb_walker_cache.overallAvgMissLatency::cpu_cluster.cpus0.mmu.dtb_walker 38391.378559                       # average overall miss latency ((Cycle/Count))
testsys.cpu_cluster.cpus0.dtb_walker_cache.overallAvgMissLatency::total 38391.378559                       # average overall miss latency ((Cycle/Count))
testsys.cpu_cluster.cpus0.dtb_walker_cache.blockedCycles::no_mshrs            0                       # number of cycles access was blocked (Cycle)
testsys.cpu_cluster.cpus0.dtb_walker_cache.blockedCycles::no_targets            0                       # number of cycles access was blocked (Cycle)
testsys.cpu_cluster.cpus0.dtb_walker_cache.blockedCauses::no_mshrs            0                       # number of times access was blocked (Count)
testsys.cpu_cluster.cpus0.dtb_walker_cache.blockedCauses::no_targets            0                       # number of times access was blocked (Count)
testsys.cpu_cluster.cpus0.dtb_walker_cache.avgBlocked::no_mshrs          nan                       # average number of cycles each access was blocked ((Cycle/Count))
testsys.cpu_cluster.cpus0.dtb_walker_cache.avgBlocked::no_targets          nan                       # average number of cycles each access was blocked ((Cycle/Count))
testsys.cpu_cluster.cpus0.dtb_walker_cache.writebacks::writebacks          597                       # number of writebacks (Count)
testsys.cpu_cluster.cpus0.dtb_walker_cache.writebacks::total          597                       # number of writebacks (Count)
testsys.cpu_cluster.cpus0.dtb_walker_cache.demandMshrMisses::cpu_cluster.cpus0.mmu.dtb_walker          597                       # number of demand (read+write) MSHR misses (Count)
testsys.cpu_cluster.cpus0.dtb_walker_cache.demandMshrMisses::total          597                       # number of demand (read+write) MSHR misses (Count)
testsys.cpu_cluster.cpus0.dtb_walker_cache.overallMshrMisses::cpu_cluster.cpus0.mmu.dtb_walker          597                       # number of overall MSHR misses (Count)
testsys.cpu_cluster.cpus0.dtb_walker_cache.overallMshrMisses::total          597                       # number of overall MSHR misses (Count)
testsys.cpu_cluster.cpus0.dtb_walker_cache.demandMshrMissLatency::cpu_cluster.cpus0.mmu.dtb_walker     22322653                       # number of demand (read+write) MSHR miss ticks (Tick)
testsys.cpu_cluster.cpus0.dtb_walker_cache.demandMshrMissLatency::total     22322653                       # number of demand (read+write) MSHR miss ticks (Tick)
testsys.cpu_cluster.cpus0.dtb_walker_cache.overallMshrMissLatency::cpu_cluster.cpus0.mmu.dtb_walker     22322653                       # number of overall MSHR miss ticks (Tick)
testsys.cpu_cluster.cpus0.dtb_walker_cache.overallMshrMissLatency::total     22322653                       # number of overall MSHR miss ticks (Tick)
testsys.cpu_cluster.cpus0.dtb_walker_cache.demandMshrMissRate::cpu_cluster.cpus0.mmu.dtb_walker     0.389432                       # mshr miss ratio for demand accesses (Ratio)
testsys.cpu_cluster.cpus0.dtb_walker_cache.demandMshrMissRate::total     0.389432                       # mshr miss ratio for demand accesses (Ratio)
testsys.cpu_cluster.cpus0.dtb_walker_cache.overallMshrMissRate::cpu_cluster.cpus0.mmu.dtb_walker     0.389432                       # mshr miss ratio for overall accesses (Ratio)
testsys.cpu_cluster.cpus0.dtb_walker_cache.overallMshrMissRate::total     0.389432                       # mshr miss ratio for overall accesses (Ratio)
testsys.cpu_cluster.cpus0.dtb_walker_cache.demandAvgMshrMissLatency::cpu_cluster.cpus0.mmu.dtb_walker 37391.378559                       # average overall mshr miss latency ((Cycle/Count))
testsys.cpu_cluster.cpus0.dtb_walker_cache.demandAvgMshrMissLatency::total 37391.378559                       # average overall mshr miss latency ((Cycle/Count))
testsys.cpu_cluster.cpus0.dtb_walker_cache.overallAvgMshrMissLatency::cpu_cluster.cpus0.mmu.dtb_walker 37391.378559                       # average overall mshr miss latency ((Cycle/Count))
testsys.cpu_cluster.cpus0.dtb_walker_cache.overallAvgMshrMissLatency::total 37391.378559                       # average overall mshr miss latency ((Cycle/Count))
testsys.cpu_cluster.cpus0.dtb_walker_cache.replacements          597                       # number of replacements (Count)
testsys.cpu_cluster.cpus0.dtb_walker_cache.ReadReq.hits::cpu_cluster.cpus0.mmu.dtb_walker          936                       # number of ReadReq hits (Count)
testsys.cpu_cluster.cpus0.dtb_walker_cache.ReadReq.hits::total          936                       # number of ReadReq hits (Count)
testsys.cpu_cluster.cpus0.dtb_walker_cache.ReadReq.misses::cpu_cluster.cpus0.mmu.dtb_walker          597                       # number of ReadReq misses (Count)
testsys.cpu_cluster.cpus0.dtb_walker_cache.ReadReq.misses::total          597                       # number of ReadReq misses (Count)
testsys.cpu_cluster.cpus0.dtb_walker_cache.ReadReq.missLatency::cpu_cluster.cpus0.mmu.dtb_walker     22919653                       # number of ReadReq miss ticks (Tick)
testsys.cpu_cluster.cpus0.dtb_walker_cache.ReadReq.missLatency::total     22919653                       # number of ReadReq miss ticks (Tick)
testsys.cpu_cluster.cpus0.dtb_walker_cache.ReadReq.accesses::cpu_cluster.cpus0.mmu.dtb_walker         1533                       # number of ReadReq accesses(hits+misses) (Count)
testsys.cpu_cluster.cpus0.dtb_walker_cache.ReadReq.accesses::total         1533                       # number of ReadReq accesses(hits+misses) (Count)
testsys.cpu_cluster.cpus0.dtb_walker_cache.ReadReq.missRate::cpu_cluster.cpus0.mmu.dtb_walker     0.389432                       # miss rate for ReadReq accesses (Ratio)
testsys.cpu_cluster.cpus0.dtb_walker_cache.ReadReq.missRate::total     0.389432                       # miss rate for ReadReq accesses (Ratio)
testsys.cpu_cluster.cpus0.dtb_walker_cache.ReadReq.avgMissLatency::cpu_cluster.cpus0.mmu.dtb_walker 38391.378559                       # average ReadReq miss latency ((Tick/Count))
testsys.cpu_cluster.cpus0.dtb_walker_cache.ReadReq.avgMissLatency::total 38391.378559                       # average ReadReq miss latency ((Tick/Count))
testsys.cpu_cluster.cpus0.dtb_walker_cache.ReadReq.mshrMisses::cpu_cluster.cpus0.mmu.dtb_walker          597                       # number of ReadReq MSHR misses (Count)
testsys.cpu_cluster.cpus0.dtb_walker_cache.ReadReq.mshrMisses::total          597                       # number of ReadReq MSHR misses (Count)
testsys.cpu_cluster.cpus0.dtb_walker_cache.ReadReq.mshrMissLatency::cpu_cluster.cpus0.mmu.dtb_walker     22322653                       # number of ReadReq MSHR miss ticks (Tick)
testsys.cpu_cluster.cpus0.dtb_walker_cache.ReadReq.mshrMissLatency::total     22322653                       # number of ReadReq MSHR miss ticks (Tick)
testsys.cpu_cluster.cpus0.dtb_walker_cache.ReadReq.mshrMissRate::cpu_cluster.cpus0.mmu.dtb_walker     0.389432                       # mshr miss rate for ReadReq accesses (Ratio)
testsys.cpu_cluster.cpus0.dtb_walker_cache.ReadReq.mshrMissRate::total     0.389432                       # mshr miss rate for ReadReq accesses (Ratio)
testsys.cpu_cluster.cpus0.dtb_walker_cache.ReadReq.avgMshrMissLatency::cpu_cluster.cpus0.mmu.dtb_walker 37391.378559                       # average ReadReq mshr miss latency ((Tick/Count))
testsys.cpu_cluster.cpus0.dtb_walker_cache.ReadReq.avgMshrMissLatency::total 37391.378559                       # average ReadReq mshr miss latency ((Tick/Count))
testsys.cpu_cluster.cpus0.dtb_walker_cache.power_state.pwrStateResidencyTicks::UNDEFINED 496335937000                       # Cumulative time (in ticks) in various power states (Tick)
testsys.cpu_cluster.cpus0.dtb_walker_cache.tags.tagsInUse           16                       # Average ticks per tags in use ((Tick/Count))
testsys.cpu_cluster.cpus0.dtb_walker_cache.tags.totalRefs         1587                       # Total number of references to valid blocks. (Count)
testsys.cpu_cluster.cpus0.dtb_walker_cache.tags.sampledRefs          613                       # Sample count of references to valid blocks. (Count)
testsys.cpu_cluster.cpus0.dtb_walker_cache.tags.avgRefs     2.588907                       # Average number of references to valid blocks. ((Count/Count))
testsys.cpu_cluster.cpus0.dtb_walker_cache.tags.warmupTick            0                       # The tick when the warmup percentage was hit. (Tick)
testsys.cpu_cluster.cpus0.dtb_walker_cache.tags.occupancies::cpu_cluster.cpus0.mmu.dtb_walker           16                       # Average occupied blocks per tick, per requestor ((Count/Tick))
testsys.cpu_cluster.cpus0.dtb_walker_cache.tags.avgOccs::cpu_cluster.cpus0.mmu.dtb_walker            1                       # Average percentage of cache occupancy ((Ratio/Tick))
testsys.cpu_cluster.cpus0.dtb_walker_cache.tags.avgOccs::total            1                       # Average percentage of cache occupancy ((Ratio/Tick))
testsys.cpu_cluster.cpus0.dtb_walker_cache.tags.occupanciesTaskId::1023           16                       # Occupied blocks per task id (Count)
testsys.cpu_cluster.cpus0.dtb_walker_cache.tags.ageTaskId_1023::3           16                       # Occupied blocks per task id, per block age (Count)
testsys.cpu_cluster.cpus0.dtb_walker_cache.tags.ratioOccsTaskId::1023            1                       # Ratio of occupied blocks and all blocks, per task id (Ratio)
testsys.cpu_cluster.cpus0.dtb_walker_cache.tags.tagAccesses        12861                       # Number of tag accesses (Count)
testsys.cpu_cluster.cpus0.dtb_walker_cache.tags.dataAccesses        12861                       # Number of data accesses (Count)
testsys.cpu_cluster.cpus0.dtb_walker_cache.tags.power_state.pwrStateResidencyTicks::UNDEFINED 496335937000                       # Cumulative time (in ticks) in various power states (Tick)
testsys.cpu_cluster.cpus0.fetch2.intInstructions        60810                       # Number of integer instructions successfully decoded (Count)
testsys.cpu_cluster.cpus0.fetch2.fpInstructions            0                       # Number of floating point instructions successfully decoded (Count)
testsys.cpu_cluster.cpus0.fetch2.vecInstructions            0                       # Number of SIMD instructions successfully decoded (Count)
testsys.cpu_cluster.cpus0.fetch2.loadInstructions        18476                       # Number of memory load instructions successfully decoded (Count)
testsys.cpu_cluster.cpus0.fetch2.storeInstructions         6058                       # Number of memory store instructions successfully decoded (Count)
testsys.cpu_cluster.cpus0.fetch2.amoInstructions          607                       # Number of memory atomic instructions successfully decoded (Count)
testsys.cpu_cluster.cpus0.icache.demandHits::cpu_cluster.cpus0.inst        38876                       # number of demand (read+write) hits (Count)
testsys.cpu_cluster.cpus0.icache.demandHits::total        38876                       # number of demand (read+write) hits (Count)
testsys.cpu_cluster.cpus0.icache.overallHits::cpu_cluster.cpus0.inst        38876                       # number of overall hits (Count)
testsys.cpu_cluster.cpus0.icache.overallHits::total        38876                       # number of overall hits (Count)
testsys.cpu_cluster.cpus0.icache.demandMisses::cpu_cluster.cpus0.inst         2956                       # number of demand (read+write) misses (Count)
testsys.cpu_cluster.cpus0.icache.demandMisses::total         2956                       # number of demand (read+write) misses (Count)
testsys.cpu_cluster.cpus0.icache.overallMisses::cpu_cluster.cpus0.inst         2956                       # number of overall misses (Count)
testsys.cpu_cluster.cpus0.icache.overallMisses::total         2956                       # number of overall misses (Count)
testsys.cpu_cluster.cpus0.icache.demandMissLatency::cpu_cluster.cpus0.inst    100491250                       # number of demand (read+write) miss ticks (Tick)
testsys.cpu_cluster.cpus0.icache.demandMissLatency::total    100491250                       # number of demand (read+write) miss ticks (Tick)
testsys.cpu_cluster.cpus0.icache.overallMissLatency::cpu_cluster.cpus0.inst    100491250                       # number of overall miss ticks (Tick)
testsys.cpu_cluster.cpus0.icache.overallMissLatency::total    100491250                       # number of overall miss ticks (Tick)
testsys.cpu_cluster.cpus0.icache.demandAccesses::cpu_cluster.cpus0.inst        41832                       # number of demand (read+write) accesses (Count)
testsys.cpu_cluster.cpus0.icache.demandAccesses::total        41832                       # number of demand (read+write) accesses (Count)
testsys.cpu_cluster.cpus0.icache.overallAccesses::cpu_cluster.cpus0.inst        41832                       # number of overall (read+write) accesses (Count)
testsys.cpu_cluster.cpus0.icache.overallAccesses::total        41832                       # number of overall (read+write) accesses (Count)
testsys.cpu_cluster.cpus0.icache.demandMissRate::cpu_cluster.cpus0.inst     0.070664                       # miss rate for demand accesses (Ratio)
testsys.cpu_cluster.cpus0.icache.demandMissRate::total     0.070664                       # miss rate for demand accesses (Ratio)
testsys.cpu_cluster.cpus0.icache.overallMissRate::cpu_cluster.cpus0.inst     0.070664                       # miss rate for overall accesses (Ratio)
testsys.cpu_cluster.cpus0.icache.overallMissRate::total     0.070664                       # miss rate for overall accesses (Ratio)
testsys.cpu_cluster.cpus0.icache.demandAvgMissLatency::cpu_cluster.cpus0.inst 33995.686739                       # average overall miss latency ((Cycle/Count))
testsys.cpu_cluster.cpus0.icache.demandAvgMissLatency::total 33995.686739                       # average overall miss latency ((Cycle/Count))
testsys.cpu_cluster.cpus0.icache.overallAvgMissLatency::cpu_cluster.cpus0.inst 33995.686739                       # average overall miss latency ((Cycle/Count))
testsys.cpu_cluster.cpus0.icache.overallAvgMissLatency::total 33995.686739                       # average overall miss latency ((Cycle/Count))
testsys.cpu_cluster.cpus0.icache.blockedCycles::no_mshrs            0                       # number of cycles access was blocked (Cycle)
testsys.cpu_cluster.cpus0.icache.blockedCycles::no_targets            0                       # number of cycles access was blocked (Cycle)
testsys.cpu_cluster.cpus0.icache.blockedCauses::no_mshrs            0                       # number of times access was blocked (Count)
testsys.cpu_cluster.cpus0.icache.blockedCauses::no_targets            0                       # number of times access was blocked (Count)
testsys.cpu_cluster.cpus0.icache.avgBlocked::no_mshrs          nan                       # average number of cycles each access was blocked ((Cycle/Count))
testsys.cpu_cluster.cpus0.icache.avgBlocked::no_targets          nan                       # average number of cycles each access was blocked ((Cycle/Count))
testsys.cpu_cluster.cpus0.icache.writebacks::writebacks         2952                       # number of writebacks (Count)
testsys.cpu_cluster.cpus0.icache.writebacks::total         2952                       # number of writebacks (Count)
testsys.cpu_cluster.cpus0.icache.demandMshrMisses::cpu_cluster.cpus0.inst         2956                       # number of demand (read+write) MSHR misses (Count)
testsys.cpu_cluster.cpus0.icache.demandMshrMisses::total         2956                       # number of demand (read+write) MSHR misses (Count)
testsys.cpu_cluster.cpus0.icache.overallMshrMisses::cpu_cluster.cpus0.inst         2956                       # number of overall MSHR misses (Count)
testsys.cpu_cluster.cpus0.icache.overallMshrMisses::total         2956                       # number of overall MSHR misses (Count)
testsys.cpu_cluster.cpus0.icache.demandMshrMissLatency::cpu_cluster.cpus0.inst     99752250                       # number of demand (read+write) MSHR miss ticks (Tick)
testsys.cpu_cluster.cpus0.icache.demandMshrMissLatency::total     99752250                       # number of demand (read+write) MSHR miss ticks (Tick)
testsys.cpu_cluster.cpus0.icache.overallMshrMissLatency::cpu_cluster.cpus0.inst     99752250                       # number of overall MSHR miss ticks (Tick)
testsys.cpu_cluster.cpus0.icache.overallMshrMissLatency::total     99752250                       # number of overall MSHR miss ticks (Tick)
testsys.cpu_cluster.cpus0.icache.demandMshrMissRate::cpu_cluster.cpus0.inst     0.070664                       # mshr miss ratio for demand accesses (Ratio)
testsys.cpu_cluster.cpus0.icache.demandMshrMissRate::total     0.070664                       # mshr miss ratio for demand accesses (Ratio)
testsys.cpu_cluster.cpus0.icache.overallMshrMissRate::cpu_cluster.cpus0.inst     0.070664                       # mshr miss ratio for overall accesses (Ratio)
testsys.cpu_cluster.cpus0.icache.overallMshrMissRate::total     0.070664                       # mshr miss ratio for overall accesses (Ratio)
testsys.cpu_cluster.cpus0.icache.demandAvgMshrMissLatency::cpu_cluster.cpus0.inst 33745.686739                       # average overall mshr miss latency ((Cycle/Count))
testsys.cpu_cluster.cpus0.icache.demandAvgMshrMissLatency::total 33745.686739                       # average overall mshr miss latency ((Cycle/Count))
testsys.cpu_cluster.cpus0.icache.overallAvgMshrMissLatency::cpu_cluster.cpus0.inst 33745.686739                       # average overall mshr miss latency ((Cycle/Count))
testsys.cpu_cluster.cpus0.icache.overallAvgMshrMissLatency::total 33745.686739                       # average overall mshr miss latency ((Cycle/Count))
testsys.cpu_cluster.cpus0.icache.replacements         2952                       # number of replacements (Count)
testsys.cpu_cluster.cpus0.icache.ReadReq.hits::cpu_cluster.cpus0.inst        38876                       # number of ReadReq hits (Count)
testsys.cpu_cluster.cpus0.icache.ReadReq.hits::total        38876                       # number of ReadReq hits (Count)
testsys.cpu_cluster.cpus0.icache.ReadReq.misses::cpu_cluster.cpus0.inst         2956                       # number of ReadReq misses (Count)
testsys.cpu_cluster.cpus0.icache.ReadReq.misses::total         2956                       # number of ReadReq misses (Count)
testsys.cpu_cluster.cpus0.icache.ReadReq.missLatency::cpu_cluster.cpus0.inst    100491250                       # number of ReadReq miss ticks (Tick)
testsys.cpu_cluster.cpus0.icache.ReadReq.missLatency::total    100491250                       # number of ReadReq miss ticks (Tick)
testsys.cpu_cluster.cpus0.icache.ReadReq.accesses::cpu_cluster.cpus0.inst        41832                       # number of ReadReq accesses(hits+misses) (Count)
testsys.cpu_cluster.cpus0.icache.ReadReq.accesses::total        41832                       # number of ReadReq accesses(hits+misses) (Count)
testsys.cpu_cluster.cpus0.icache.ReadReq.missRate::cpu_cluster.cpus0.inst     0.070664                       # miss rate for ReadReq accesses (Ratio)
testsys.cpu_cluster.cpus0.icache.ReadReq.missRate::total     0.070664                       # miss rate for ReadReq accesses (Ratio)
testsys.cpu_cluster.cpus0.icache.ReadReq.avgMissLatency::cpu_cluster.cpus0.inst 33995.686739                       # average ReadReq miss latency ((Tick/Count))
testsys.cpu_cluster.cpus0.icache.ReadReq.avgMissLatency::total 33995.686739                       # average ReadReq miss latency ((Tick/Count))
testsys.cpu_cluster.cpus0.icache.ReadReq.mshrMisses::cpu_cluster.cpus0.inst         2956                       # number of ReadReq MSHR misses (Count)
testsys.cpu_cluster.cpus0.icache.ReadReq.mshrMisses::total         2956                       # number of ReadReq MSHR misses (Count)
testsys.cpu_cluster.cpus0.icache.ReadReq.mshrMissLatency::cpu_cluster.cpus0.inst     99752250                       # number of ReadReq MSHR miss ticks (Tick)
testsys.cpu_cluster.cpus0.icache.ReadReq.mshrMissLatency::total     99752250                       # number of ReadReq MSHR miss ticks (Tick)
testsys.cpu_cluster.cpus0.icache.ReadReq.mshrMissRate::cpu_cluster.cpus0.inst     0.070664                       # mshr miss rate for ReadReq accesses (Ratio)
testsys.cpu_cluster.cpus0.icache.ReadReq.mshrMissRate::total     0.070664                       # mshr miss rate for ReadReq accesses (Ratio)
testsys.cpu_cluster.cpus0.icache.ReadReq.avgMshrMissLatency::cpu_cluster.cpus0.inst 33745.686739                       # average ReadReq mshr miss latency ((Tick/Count))
testsys.cpu_cluster.cpus0.icache.ReadReq.avgMshrMissLatency::total 33745.686739                       # average ReadReq mshr miss latency ((Tick/Count))
testsys.cpu_cluster.cpus0.icache.power_state.pwrStateResidencyTicks::UNDEFINED 496335937000                       # Cumulative time (in ticks) in various power states (Tick)
testsys.cpu_cluster.cpus0.icache.tags.tagsInUse   732.302821                       # Average ticks per tags in use ((Tick/Count))
testsys.cpu_cluster.cpus0.icache.tags.totalRefs        61504                       # Total number of references to valid blocks. (Count)
testsys.cpu_cluster.cpus0.icache.tags.sampledRefs         3686                       # Sample count of references to valid blocks. (Count)
testsys.cpu_cluster.cpus0.icache.tags.avgRefs    16.685838                       # Average number of references to valid blocks. ((Count/Count))
testsys.cpu_cluster.cpus0.icache.tags.warmupTick            0                       # The tick when the warmup percentage was hit. (Tick)
testsys.cpu_cluster.cpus0.icache.tags.occupancies::cpu_cluster.cpus0.inst   732.302821                       # Average occupied blocks per tick, per requestor ((Count/Tick))
testsys.cpu_cluster.cpus0.icache.tags.avgOccs::cpu_cluster.cpus0.inst     0.953519                       # Average percentage of cache occupancy ((Ratio/Tick))
testsys.cpu_cluster.cpus0.icache.tags.avgOccs::total     0.953519                       # Average percentage of cache occupancy ((Ratio/Tick))
testsys.cpu_cluster.cpus0.icache.tags.occupanciesTaskId::1024          734                       # Occupied blocks per task id (Count)
testsys.cpu_cluster.cpus0.icache.tags.ageTaskId_1024::3          679                       # Occupied blocks per task id, per block age (Count)
testsys.cpu_cluster.cpus0.icache.tags.ageTaskId_1024::4           55                       # Occupied blocks per task id, per block age (Count)
testsys.cpu_cluster.cpus0.icache.tags.ratioOccsTaskId::1024     0.955729                       # Ratio of occupied blocks and all blocks, per task id (Ratio)
testsys.cpu_cluster.cpus0.icache.tags.tagAccesses       128452                       # Number of tag accesses (Count)
testsys.cpu_cluster.cpus0.icache.tags.dataAccesses       128452                       # Number of data accesses (Count)
testsys.cpu_cluster.cpus0.icache.tags.power_state.pwrStateResidencyTicks::UNDEFINED 496335937000                       # Cumulative time (in ticks) in various power states (Tick)
testsys.cpu_cluster.cpus0.itb_walker_cache.demandHits::cpu_cluster.cpus0.mmu.itb_walker          125                       # number of demand (read+write) hits (Count)
testsys.cpu_cluster.cpus0.itb_walker_cache.demandHits::total          125                       # number of demand (read+write) hits (Count)
testsys.cpu_cluster.cpus0.itb_walker_cache.overallHits::cpu_cluster.cpus0.mmu.itb_walker          125                       # number of overall hits (Count)
testsys.cpu_cluster.cpus0.itb_walker_cache.overallHits::total          125                       # number of overall hits (Count)
testsys.cpu_cluster.cpus0.itb_walker_cache.demandMisses::cpu_cluster.cpus0.mmu.itb_walker           15                       # number of demand (read+write) misses (Count)
testsys.cpu_cluster.cpus0.itb_walker_cache.demandMisses::total           15                       # number of demand (read+write) misses (Count)
testsys.cpu_cluster.cpus0.itb_walker_cache.overallMisses::cpu_cluster.cpus0.mmu.itb_walker           15                       # number of overall misses (Count)
testsys.cpu_cluster.cpus0.itb_walker_cache.overallMisses::total           15                       # number of overall misses (Count)
testsys.cpu_cluster.cpus0.itb_walker_cache.demandMissLatency::cpu_cluster.cpus0.mmu.itb_walker       741985                       # number of demand (read+write) miss ticks (Tick)
testsys.cpu_cluster.cpus0.itb_walker_cache.demandMissLatency::total       741985                       # number of demand (read+write) miss ticks (Tick)
testsys.cpu_cluster.cpus0.itb_walker_cache.overallMissLatency::cpu_cluster.cpus0.mmu.itb_walker       741985                       # number of overall miss ticks (Tick)
testsys.cpu_cluster.cpus0.itb_walker_cache.overallMissLatency::total       741985                       # number of overall miss ticks (Tick)
testsys.cpu_cluster.cpus0.itb_walker_cache.demandAccesses::cpu_cluster.cpus0.mmu.itb_walker          140                       # number of demand (read+write) accesses (Count)
testsys.cpu_cluster.cpus0.itb_walker_cache.demandAccesses::total          140                       # number of demand (read+write) accesses (Count)
testsys.cpu_cluster.cpus0.itb_walker_cache.overallAccesses::cpu_cluster.cpus0.mmu.itb_walker          140                       # number of overall (read+write) accesses (Count)
testsys.cpu_cluster.cpus0.itb_walker_cache.overallAccesses::total          140                       # number of overall (read+write) accesses (Count)
testsys.cpu_cluster.cpus0.itb_walker_cache.demandMissRate::cpu_cluster.cpus0.mmu.itb_walker     0.107143                       # miss rate for demand accesses (Ratio)
testsys.cpu_cluster.cpus0.itb_walker_cache.demandMissRate::total     0.107143                       # miss rate for demand accesses (Ratio)
testsys.cpu_cluster.cpus0.itb_walker_cache.overallMissRate::cpu_cluster.cpus0.mmu.itb_walker     0.107143                       # miss rate for overall accesses (Ratio)
testsys.cpu_cluster.cpus0.itb_walker_cache.overallMissRate::total     0.107143                       # miss rate for overall accesses (Ratio)
testsys.cpu_cluster.cpus0.itb_walker_cache.demandAvgMissLatency::cpu_cluster.cpus0.mmu.itb_walker 49465.666667                       # average overall miss latency ((Cycle/Count))
testsys.cpu_cluster.cpus0.itb_walker_cache.demandAvgMissLatency::total 49465.666667                       # average overall miss latency ((Cycle/Count))
testsys.cpu_cluster.cpus0.itb_walker_cache.overallAvgMissLatency::cpu_cluster.cpus0.mmu.itb_walker 49465.666667                       # average overall miss latency ((Cycle/Count))
testsys.cpu_cluster.cpus0.itb_walker_cache.overallAvgMissLatency::total 49465.666667                       # average overall miss latency ((Cycle/Count))
testsys.cpu_cluster.cpus0.itb_walker_cache.blockedCycles::no_mshrs            0                       # number of cycles access was blocked (Cycle)
testsys.cpu_cluster.cpus0.itb_walker_cache.blockedCycles::no_targets            0                       # number of cycles access was blocked (Cycle)
testsys.cpu_cluster.cpus0.itb_walker_cache.blockedCauses::no_mshrs            0                       # number of times access was blocked (Count)
testsys.cpu_cluster.cpus0.itb_walker_cache.blockedCauses::no_targets            0                       # number of times access was blocked (Count)
testsys.cpu_cluster.cpus0.itb_walker_cache.avgBlocked::no_mshrs          nan                       # average number of cycles each access was blocked ((Cycle/Count))
testsys.cpu_cluster.cpus0.itb_walker_cache.avgBlocked::no_targets          nan                       # average number of cycles each access was blocked ((Cycle/Count))
testsys.cpu_cluster.cpus0.itb_walker_cache.writebacks::writebacks           15                       # number of writebacks (Count)
testsys.cpu_cluster.cpus0.itb_walker_cache.writebacks::total           15                       # number of writebacks (Count)
testsys.cpu_cluster.cpus0.itb_walker_cache.demandMshrMisses::cpu_cluster.cpus0.mmu.itb_walker           15                       # number of demand (read+write) MSHR misses (Count)
testsys.cpu_cluster.cpus0.itb_walker_cache.demandMshrMisses::total           15                       # number of demand (read+write) MSHR misses (Count)
testsys.cpu_cluster.cpus0.itb_walker_cache.overallMshrMisses::cpu_cluster.cpus0.mmu.itb_walker           15                       # number of overall MSHR misses (Count)
testsys.cpu_cluster.cpus0.itb_walker_cache.overallMshrMisses::total           15                       # number of overall MSHR misses (Count)
testsys.cpu_cluster.cpus0.itb_walker_cache.demandMshrMissLatency::cpu_cluster.cpus0.mmu.itb_walker       726985                       # number of demand (read+write) MSHR miss ticks (Tick)
testsys.cpu_cluster.cpus0.itb_walker_cache.demandMshrMissLatency::total       726985                       # number of demand (read+write) MSHR miss ticks (Tick)
testsys.cpu_cluster.cpus0.itb_walker_cache.overallMshrMissLatency::cpu_cluster.cpus0.mmu.itb_walker       726985                       # number of overall MSHR miss ticks (Tick)
testsys.cpu_cluster.cpus0.itb_walker_cache.overallMshrMissLatency::total       726985                       # number of overall MSHR miss ticks (Tick)
testsys.cpu_cluster.cpus0.itb_walker_cache.demandMshrMissRate::cpu_cluster.cpus0.mmu.itb_walker     0.107143                       # mshr miss ratio for demand accesses (Ratio)
testsys.cpu_cluster.cpus0.itb_walker_cache.demandMshrMissRate::total     0.107143                       # mshr miss ratio for demand accesses (Ratio)
testsys.cpu_cluster.cpus0.itb_walker_cache.overallMshrMissRate::cpu_cluster.cpus0.mmu.itb_walker     0.107143                       # mshr miss ratio for overall accesses (Ratio)
testsys.cpu_cluster.cpus0.itb_walker_cache.overallMshrMissRate::total     0.107143                       # mshr miss ratio for overall accesses (Ratio)
testsys.cpu_cluster.cpus0.itb_walker_cache.demandAvgMshrMissLatency::cpu_cluster.cpus0.mmu.itb_walker 48465.666667                       # average overall mshr miss latency ((Cycle/Count))
testsys.cpu_cluster.cpus0.itb_walker_cache.demandAvgMshrMissLatency::total 48465.666667                       # average overall mshr miss latency ((Cycle/Count))
testsys.cpu_cluster.cpus0.itb_walker_cache.overallAvgMshrMissLatency::cpu_cluster.cpus0.mmu.itb_walker 48465.666667                       # average overall mshr miss latency ((Cycle/Count))
testsys.cpu_cluster.cpus0.itb_walker_cache.overallAvgMshrMissLatency::total 48465.666667                       # average overall mshr miss latency ((Cycle/Count))
testsys.cpu_cluster.cpus0.itb_walker_cache.replacements           15                       # number of replacements (Count)
testsys.cpu_cluster.cpus0.itb_walker_cache.ReadReq.hits::cpu_cluster.cpus0.mmu.itb_walker          125                       # number of ReadReq hits (Count)
testsys.cpu_cluster.cpus0.itb_walker_cache.ReadReq.hits::total          125                       # number of ReadReq hits (Count)
testsys.cpu_cluster.cpus0.itb_walker_cache.ReadReq.misses::cpu_cluster.cpus0.mmu.itb_walker           15                       # number of ReadReq misses (Count)
testsys.cpu_cluster.cpus0.itb_walker_cache.ReadReq.misses::total           15                       # number of ReadReq misses (Count)
testsys.cpu_cluster.cpus0.itb_walker_cache.ReadReq.missLatency::cpu_cluster.cpus0.mmu.itb_walker       741985                       # number of ReadReq miss ticks (Tick)
testsys.cpu_cluster.cpus0.itb_walker_cache.ReadReq.missLatency::total       741985                       # number of ReadReq miss ticks (Tick)
testsys.cpu_cluster.cpus0.itb_walker_cache.ReadReq.accesses::cpu_cluster.cpus0.mmu.itb_walker          140                       # number of ReadReq accesses(hits+misses) (Count)
testsys.cpu_cluster.cpus0.itb_walker_cache.ReadReq.accesses::total          140                       # number of ReadReq accesses(hits+misses) (Count)
testsys.cpu_cluster.cpus0.itb_walker_cache.ReadReq.missRate::cpu_cluster.cpus0.mmu.itb_walker     0.107143                       # miss rate for ReadReq accesses (Ratio)
testsys.cpu_cluster.cpus0.itb_walker_cache.ReadReq.missRate::total     0.107143                       # miss rate for ReadReq accesses (Ratio)
testsys.cpu_cluster.cpus0.itb_walker_cache.ReadReq.avgMissLatency::cpu_cluster.cpus0.mmu.itb_walker 49465.666667                       # average ReadReq miss latency ((Tick/Count))
testsys.cpu_cluster.cpus0.itb_walker_cache.ReadReq.avgMissLatency::total 49465.666667                       # average ReadReq miss latency ((Tick/Count))
testsys.cpu_cluster.cpus0.itb_walker_cache.ReadReq.mshrMisses::cpu_cluster.cpus0.mmu.itb_walker           15                       # number of ReadReq MSHR misses (Count)
testsys.cpu_cluster.cpus0.itb_walker_cache.ReadReq.mshrMisses::total           15                       # number of ReadReq MSHR misses (Count)
testsys.cpu_cluster.cpus0.itb_walker_cache.ReadReq.mshrMissLatency::cpu_cluster.cpus0.mmu.itb_walker       726985                       # number of ReadReq MSHR miss ticks (Tick)
testsys.cpu_cluster.cpus0.itb_walker_cache.ReadReq.mshrMissLatency::total       726985                       # number of ReadReq MSHR miss ticks (Tick)
testsys.cpu_cluster.cpus0.itb_walker_cache.ReadReq.mshrMissRate::cpu_cluster.cpus0.mmu.itb_walker     0.107143                       # mshr miss rate for ReadReq accesses (Ratio)
testsys.cpu_cluster.cpus0.itb_walker_cache.ReadReq.mshrMissRate::total     0.107143                       # mshr miss rate for ReadReq accesses (Ratio)
testsys.cpu_cluster.cpus0.itb_walker_cache.ReadReq.avgMshrMissLatency::cpu_cluster.cpus0.mmu.itb_walker 48465.666667                       # average ReadReq mshr miss latency ((Tick/Count))
testsys.cpu_cluster.cpus0.itb_walker_cache.ReadReq.avgMshrMissLatency::total 48465.666667                       # average ReadReq mshr miss latency ((Tick/Count))
testsys.cpu_cluster.cpus0.itb_walker_cache.power_state.pwrStateResidencyTicks::UNDEFINED 496335937000                       # Cumulative time (in ticks) in various power states (Tick)
testsys.cpu_cluster.cpus0.itb_walker_cache.tags.tagsInUse           16                       # Average ticks per tags in use ((Tick/Count))
testsys.cpu_cluster.cpus0.itb_walker_cache.tags.totalRefs          415                       # Total number of references to valid blocks. (Count)
testsys.cpu_cluster.cpus0.itb_walker_cache.tags.sampledRefs           31                       # Sample count of references to valid blocks. (Count)
testsys.cpu_cluster.cpus0.itb_walker_cache.tags.avgRefs    13.387097                       # Average number of references to valid blocks. ((Count/Count))
testsys.cpu_cluster.cpus0.itb_walker_cache.tags.warmupTick            0                       # The tick when the warmup percentage was hit. (Tick)
testsys.cpu_cluster.cpus0.itb_walker_cache.tags.occupancies::cpu_cluster.cpus0.mmu.itb_walker           16                       # Average occupied blocks per tick, per requestor ((Count/Tick))
testsys.cpu_cluster.cpus0.itb_walker_cache.tags.avgOccs::cpu_cluster.cpus0.mmu.itb_walker            1                       # Average percentage of cache occupancy ((Ratio/Tick))
testsys.cpu_cluster.cpus0.itb_walker_cache.tags.avgOccs::total            1                       # Average percentage of cache occupancy ((Ratio/Tick))
testsys.cpu_cluster.cpus0.itb_walker_cache.tags.occupanciesTaskId::1023           16                       # Occupied blocks per task id (Count)
testsys.cpu_cluster.cpus0.itb_walker_cache.tags.ageTaskId_1023::3           12                       # Occupied blocks per task id, per block age (Count)
testsys.cpu_cluster.cpus0.itb_walker_cache.tags.ageTaskId_1023::4            4                       # Occupied blocks per task id, per block age (Count)
testsys.cpu_cluster.cpus0.itb_walker_cache.tags.ratioOccsTaskId::1023            1                       # Ratio of occupied blocks and all blocks, per task id (Ratio)
testsys.cpu_cluster.cpus0.itb_walker_cache.tags.tagAccesses         1135                       # Number of tag accesses (Count)
testsys.cpu_cluster.cpus0.itb_walker_cache.tags.dataAccesses         1135                       # Number of data accesses (Count)
testsys.cpu_cluster.cpus0.itb_walker_cache.tags.power_state.pwrStateResidencyTicks::UNDEFINED 496335937000                       # Cumulative time (in ticks) in various power states (Tick)
testsys.cpu_cluster.cpus0.mmu.dtb.instHits            0                       # ITB inst hits (Count)
testsys.cpu_cluster.cpus0.mmu.dtb.instMisses            0                       # ITB inst misses (Count)
testsys.cpu_cluster.cpus0.mmu.dtb.readHits        20055                       # DTB read hits (Count)
testsys.cpu_cluster.cpus0.mmu.dtb.readMisses          378                       # DTB read misses (Count)
testsys.cpu_cluster.cpus0.mmu.dtb.writeHits        15028                       # DTB write hits (Count)
testsys.cpu_cluster.cpus0.mmu.dtb.writeMisses           37                       # DTB write misses (Count)
testsys.cpu_cluster.cpus0.mmu.dtb.inserts          277                       # Number of times an entry is inserted into the TLB (Count)
testsys.cpu_cluster.cpus0.mmu.dtb.flushTlb            0                       # Number of times complete TLB was flushed (Count)
testsys.cpu_cluster.cpus0.mmu.dtb.flushTlbMva            0                       # Number of times TLB was flushed by MVA (Count)
testsys.cpu_cluster.cpus0.mmu.dtb.flushTlbMvaAsid           38                       # Number of times TLB was flushed by MVA & ASID (Count)
testsys.cpu_cluster.cpus0.mmu.dtb.flushTlbAsid            3                       # Number of times TLB was flushed by ASID (Count)
testsys.cpu_cluster.cpus0.mmu.dtb.flushedEntries            0                       # Number of entries that have been flushed from TLB (Count)
testsys.cpu_cluster.cpus0.mmu.dtb.alignFaults            0                       # Number of TLB faults due to alignment restrictions (Count)
testsys.cpu_cluster.cpus0.mmu.dtb.prefetchFaults            1                       # Number of TLB faults due to prefetch (Count)
testsys.cpu_cluster.cpus0.mmu.dtb.domainFaults            0                       # Number of TLB faults due to domain restrictions (Count)
testsys.cpu_cluster.cpus0.mmu.dtb.permsFaults            0                       # Number of TLB faults due to permissions restrictions (Count)
testsys.cpu_cluster.cpus0.mmu.dtb.readAccesses        20433                       # DTB read accesses (Count)
testsys.cpu_cluster.cpus0.mmu.dtb.writeAccesses        15065                       # DTB write accesses (Count)
testsys.cpu_cluster.cpus0.mmu.dtb.instAccesses            0                       # ITB inst accesses (Count)
testsys.cpu_cluster.cpus0.mmu.dtb.hits          35083                       # Total TLB (inst and data) hits (Count)
testsys.cpu_cluster.cpus0.mmu.dtb.misses          415                       # Total TLB (inst and data) misses (Count)
testsys.cpu_cluster.cpus0.mmu.dtb.accesses        35498                       # Total TLB (inst and data) accesses (Count)
testsys.cpu_cluster.cpus0.mmu.dtb_walker.walks          414                       # Table walker walks requested (Count)
testsys.cpu_cluster.cpus0.mmu.dtb_walker.walksLongDescriptor          414                       # Table walker walks initiated with long descriptors (Count)
testsys.cpu_cluster.cpus0.mmu.dtb_walker.walksLongTerminatedAtLevel::Level2           13                       # Level at which table walker walks with long descriptors terminate (Count)
testsys.cpu_cluster.cpus0.mmu.dtb_walker.walksLongTerminatedAtLevel::Level3          264                       # Level at which table walker walks with long descriptors terminate (Count)
testsys.cpu_cluster.cpus0.mmu.dtb_walker.walkWaitTime::samples          414                       # Table walker wait (enqueue to first request) latency (Tick)
testsys.cpu_cluster.cpus0.mmu.dtb_walker.walkWaitTime::0          414    100.00%    100.00% # Table walker wait (enqueue to first request) latency (Tick)
testsys.cpu_cluster.cpus0.mmu.dtb_walker.walkWaitTime::total          414                       # Table walker wait (enqueue to first request) latency (Tick)
testsys.cpu_cluster.cpus0.mmu.dtb_walker.walkServiceTime::samples          277                       # Table walker service (enqueue to completion) latency (Tick)
testsys.cpu_cluster.cpus0.mmu.dtb_walker.walkServiceTime::mean 74921.480144                       # Table walker service (enqueue to completion) latency (Tick)
testsys.cpu_cluster.cpus0.mmu.dtb_walker.walkServiceTime::gmean 31365.592731                       # Table walker service (enqueue to completion) latency (Tick)
testsys.cpu_cluster.cpus0.mmu.dtb_walker.walkServiceTime::stdev 89382.761236                       # Table walker service (enqueue to completion) latency (Tick)
testsys.cpu_cluster.cpus0.mmu.dtb_walker.walkServiceTime::0-32767          144     51.99%     51.99% # Table walker service (enqueue to completion) latency (Tick)
testsys.cpu_cluster.cpus0.mmu.dtb_walker.walkServiceTime::32768-65535            9      3.25%     55.23% # Table walker service (enqueue to completion) latency (Tick)
testsys.cpu_cluster.cpus0.mmu.dtb_walker.walkServiceTime::65536-98303           58     20.94%     76.17% # Table walker service (enqueue to completion) latency (Tick)
testsys.cpu_cluster.cpus0.mmu.dtb_walker.walkServiceTime::98304-131071            7      2.53%     78.70% # Table walker service (enqueue to completion) latency (Tick)
testsys.cpu_cluster.cpus0.mmu.dtb_walker.walkServiceTime::131072-163839           17      6.14%     84.84% # Table walker service (enqueue to completion) latency (Tick)
testsys.cpu_cluster.cpus0.mmu.dtb_walker.walkServiceTime::163840-196607           10      3.61%     88.45% # Table walker service (enqueue to completion) latency (Tick)
testsys.cpu_cluster.cpus0.mmu.dtb_walker.walkServiceTime::196608-229375           10      3.61%     92.06% # Table walker service (enqueue to completion) latency (Tick)
testsys.cpu_cluster.cpus0.mmu.dtb_walker.walkServiceTime::229376-262143            6      2.17%     94.22% # Table walker service (enqueue to completion) latency (Tick)
[...]
testsys.pci_devices2.EtherDevice.coalescedSwi          nan                       # Average number of Swi's coalesced into each post ((Count/Count))
testsys.pci_devices2.EtherDevice.postedRxIdle            0                       # Number of rxIdle interrupts posted to CPU (Count)
testsys.pci_devices2.EtherDevice.totalRxIdle            0                       # Total number of RxIdle written to ISR (Count)
testsys.pci_devices2.EtherDevice.coalescedRxIdle          nan                       # Average number of RxIdle's coalesced into each post ((Count/Count))
testsys.pci_devices2.EtherDevice.postedRxOk            0                       # Number of RxOk interrupts posted to CPU (Count)
testsys.pci_devices2.EtherDevice.totalRxOk            0                       # Total number of RxOk written to ISR (Count)
testsys.pci_devices2.EtherDevice.coalescedRxOk          nan                       # Average number of RxOk's coalesced into each post ((Count/Count))
testsys.pci_devices2.EtherDevice.postedRxDesc            0                       # Number of RxDesc interrupts posted to CPU (Count)
testsys.pci_devices2.EtherDevice.totalRxDesc            0                       # Total number of RxDesc written to ISR (Count)
testsys.pci_devices2.EtherDevice.coalescedRxDesc          nan                       # Average number of RxDesc's coalesced into each post ((Count/Count))
testsys.pci_devices2.EtherDevice.postedTxOk            0                       # Number of TxOk interrupts posted to CPU (Count)
testsys.pci_devices2.EtherDevice.totalTxOk            0                       # Total number of TxOk written to ISR (Count)
testsys.pci_devices2.EtherDevice.coalescedTxOk          nan                       # Average number of TxOk's coalesced into each post ((Count/Count))
testsys.pci_devices2.EtherDevice.postedTxIdle            0                       # Number of TxIdle interrupts posted to CPU (Count)
testsys.pci_devices2.EtherDevice.totalTxIdle            0                       # Total number of TxIdle written to ISR (Count)
testsys.pci_devices2.EtherDevice.coalescedTxIdle          nan                       # Average number of TxIdle's coalesced into each post ((Count/Count))
testsys.pci_devices2.EtherDevice.postedTxDesc            0                       # Number of TxDesc interrupts posted to CPU (Count)
testsys.pci_devices2.EtherDevice.totalTxDesc            0                       # Total number of TxDesc written to ISR (Count)
testsys.pci_devices2.EtherDevice.coalescedTxDesc          nan                       # Average number of TxDesc's coalesced into each post ((Count/Count))
testsys.pci_devices2.EtherDevice.postedRxOrn            0                       # Number of RxOrn posted to CPU (Count)
testsys.pci_devices2.EtherDevice.totalRxOrn            0                       # Total number of RxOrn written to ISR (Count)
testsys.pci_devices2.EtherDevice.coalescedRxOrn          nan                       # Average number of RxOrn's coalesced into each post ((Count/Count))
testsys.pci_devices2.EtherDevice.coalescedTotal          nan                       # Average number of interrupts coalesced into each post ((Count/Count))
testsys.pci_devices2.EtherDevice.droppedPackets            0                       # Number of packets dropped (Count)
testsys.pci_devices2.power_state.pwrStateResidencyTicks::UNDEFINED 496335937000                       # Cumulative time (in ticks) in various power states (Tick)
testsys.pci_devices3.EtherDevice.postedInterrupts            0                       # Number of posts to CPU (Count)
testsys.pci_devices3.EtherDevice.descDmaReads            0                       # Number of descriptors the device read w/ DMA (Count)
testsys.pci_devices3.EtherDevice.descDmaWrites            0                       # Number of descriptors the device wrote w/ DMA (Count)
testsys.pci_devices3.EtherDevice.descDmaRdBytes            0                       # Number of descriptor bytes read w/ DMA (Count)
testsys.pci_devices3.EtherDevice.descDmaWrBytes            0                       # Number of descriptor bytes write w/ DMA (Count)
testsys.pci_devices3.EtherDevice.postedSwi            0                       # Number of software interrupts posted to CPU (Count)
testsys.pci_devices3.EtherDevice.totalSwi            0                       # Total number of Swi written to ISR (Count)
testsys.pci_devices3.EtherDevice.coalescedSwi          nan                       # Average number of Swi's coalesced into each post ((Count/Count))
testsys.pci_devices3.EtherDevice.postedRxIdle            0                       # Number of rxIdle interrupts posted to CPU (Count)
testsys.pci_devices3.EtherDevice.totalRxIdle            0                       # Total number of RxIdle written to ISR (Count)
testsys.pci_devices3.EtherDevice.coalescedRxIdle          nan                       # Average number of RxIdle's coalesced into each post ((Count/Count))
testsys.pci_devices3.EtherDevice.postedRxOk            0                       # Number of RxOk interrupts posted to CPU (Count)
testsys.pci_devices3.EtherDevice.totalRxOk            0                       # Total number of RxOk written to ISR (Count)
testsys.pci_devices3.EtherDevice.coalescedRxOk          nan                       # Average number of RxOk's coalesced into each post ((Count/Count))
testsys.pci_devices3.EtherDevice.postedRxDesc            0                       # Number of RxDesc interrupts posted to CPU (Count)
testsys.pci_devices3.EtherDevice.totalRxDesc            0                       # Total number of RxDesc written to ISR (Count)
testsys.pci_devices3.EtherDevice.coalescedRxDesc          nan                       # Average number of RxDesc's coalesced into each post ((Count/Count))
testsys.pci_devices3.EtherDevice.postedTxOk            0                       # Number of TxOk interrupts posted to CPU (Count)
testsys.pci_devices3.EtherDevice.totalTxOk            0                       # Total number of TxOk written to ISR (Count)
testsys.pci_devices3.EtherDevice.coalescedTxOk          nan                       # Average number of TxOk's coalesced into each post ((Count/Count))
testsys.pci_devices3.EtherDevice.postedTxIdle            0                       # Number of TxIdle interrupts posted to CPU (Count)
testsys.pci_devices3.EtherDevice.totalTxIdle            0                       # Total number of TxIdle written to ISR (Count)
testsys.pci_devices3.EtherDevice.coalescedTxIdle          nan                       # Average number of TxIdle's coalesced into each post ((Count/Count))
testsys.pci_devices3.EtherDevice.postedTxDesc            0                       # Number of TxDesc interrupts posted to CPU (Count)
testsys.pci_devices3.EtherDevice.totalTxDesc            0                       # Total number of TxDesc written to ISR (Count)
testsys.pci_devices3.EtherDevice.coalescedTxDesc          nan                       # Average number of TxDesc's coalesced into each post ((Count/Count))
testsys.pci_devices3.EtherDevice.postedRxOrn            0                       # Number of RxOrn posted to CPU (Count)
testsys.pci_devices3.EtherDevice.totalRxOrn            0                       # Total number of RxOrn written to ISR (Count)
testsys.pci_devices3.EtherDevice.coalescedRxOrn          nan                       # Average number of RxOrn's coalesced into each post ((Count/Count))
testsys.pci_devices3.EtherDevice.coalescedTotal          nan                       # Average number of interrupts coalesced into each post ((Count/Count))
testsys.pci_devices3.EtherDevice.droppedPackets            0                       # Number of packets dropped (Count)
testsys.pci_devices3.power_state.pwrStateResidencyTicks::UNDEFINED 496335937000                       # Cumulative time (in ticks) in various power states (Tick)
testsys.pci_devices4.EtherDevice.postedInterrupts            0                       # Number of posts to CPU (Count)
testsys.pci_devices4.EtherDevice.descDmaReads            0                       # Number of descriptors the device read w/ DMA (Count)
testsys.pci_devices4.EtherDevice.descDmaWrites            0                       # Number of descriptors the device wrote w/ DMA (Count)
testsys.pci_devices4.EtherDevice.descDmaRdBytes            0                       # Number of descriptor bytes read w/ DMA (Count)
testsys.pci_devices4.EtherDevice.descDmaWrBytes            0                       # Number of descriptor bytes write w/ DMA (Count)
testsys.pci_devices4.EtherDevice.postedSwi            0                       # Number of software interrupts posted to CPU (Count)
testsys.pci_devices4.EtherDevice.totalSwi            0                       # Total number of Swi written to ISR (Count)
testsys.pci_devices4.EtherDevice.coalescedSwi          nan                       # Average number of Swi's coalesced into each post ((Count/Count))
testsys.pci_devices4.EtherDevice.postedRxIdle            0                       # Number of rxIdle interrupts posted to CPU (Count)
testsys.pci_devices4.EtherDevice.totalRxIdle            0                       # Total number of RxIdle written to ISR (Count)
testsys.pci_devices4.EtherDevice.coalescedRxIdle          nan                       # Average number of RxIdle's coalesced into each post ((Count/Count))
testsys.pci_devices4.EtherDevice.postedRxOk            0                       # Number of RxOk interrupts posted to CPU (Count)
testsys.pci_devices4.EtherDevice.totalRxOk            0                       # Total number of RxOk written to ISR (Count)
testsys.pci_devices4.EtherDevice.coalescedRxOk          nan                       # Average number of RxOk's coalesced into each post ((Count/Count))
testsys.pci_devices4.EtherDevice.postedRxDesc            0                       # Number of RxDesc interrupts posted to CPU (Count)
testsys.pci_devices4.EtherDevice.totalRxDesc            0                       # Total number of RxDesc written to ISR (Count)
testsys.pci_devices4.EtherDevice.coalescedRxDesc          nan                       # Average number of RxDesc's coalesced into each post ((Count/Count))
testsys.pci_devices4.EtherDevice.postedTxOk            0                       # Number of TxOk interrupts posted to CPU (Count)
testsys.pci_devices4.EtherDevice.totalTxOk            0                       # Total number of TxOk written to ISR (Count)
testsys.pci_devices4.EtherDevice.coalescedTxOk          nan                       # Average number of TxOk's coalesced into each post ((Count/Count))
testsys.pci_devices4.EtherDevice.postedTxIdle            0                       # Number of TxIdle interrupts posted to CPU (Count)
testsys.pci_devices4.EtherDevice.totalTxIdle            0                       # Total number of TxIdle written to ISR (Count)
testsys.pci_devices4.EtherDevice.coalescedTxIdle          nan                       # Average number of TxIdle's coalesced into each post ((Count/Count))
testsys.pci_devices4.EtherDevice.postedTxDesc            0                       # Number of TxDesc interrupts posted to CPU (Count)
testsys.pci_devices4.EtherDevice.totalTxDesc            0                       # Total number of TxDesc written to ISR (Count)
testsys.pci_devices4.EtherDevice.coalescedTxDesc          nan                       # Average number of TxDesc's coalesced into each post ((Count/Count))
testsys.pci_devices4.EtherDevice.postedRxOrn            0                       # Number of RxOrn posted to CPU (Count)
testsys.pci_devices4.EtherDevice.totalRxOrn            0                       # Total number of RxOrn written to ISR (Count)
testsys.pci_devices4.EtherDevice.coalescedRxOrn          nan                       # Average number of RxOrn's coalesced into each post ((Count/Count))
testsys.pci_devices4.EtherDevice.coalescedTotal          nan                       # Average number of interrupts coalesced into each post ((Count/Count))
testsys.pci_devices4.EtherDevice.droppedPackets            0                       # Number of packets dropped (Count)
testsys.pci_devices4.power_state.pwrStateResidencyTicks::UNDEFINED 496335937000                       # Cumulative time (in ticks) in various power states (Tick)
testsys.realview.bootmem.power_state.pwrStateResidencyTicks::UNDEFINED 496335937000                       # Cumulative time (in ticks) in various power states (Tick)
testsys.realview.clock24MHz.clock               41667                       # Clock period in ticks (Tick)
testsys.realview.clock32KHz.clock            31250000                       # Clock period in ticks (Tick)
testsys.realview.dcc.osc_cpu.clock              16667                       # Clock period in ticks (Tick)
testsys.realview.dcc.osc_ddr.clock              25000                       # Clock period in ticks (Tick)
testsys.realview.dcc.osc_hsbm.clock             25000                       # Clock period in ticks (Tick)
testsys.realview.dcc.osc_pxl.clock              42105                       # Clock period in ticks (Tick)
testsys.realview.dcc.osc_smb.clock              20000                       # Clock period in ticks (Tick)
testsys.realview.dcc.osc_sys.clock              16667                       # Clock period in ticks (Tick)
testsys.realview.el2_watchdog.power_state.pwrStateResidencyTicks::UNDEFINED 496335937000                       # Cumulative time (in ticks) in various power states (Tick)
testsys.realview.energy_ctrl.power_state.pwrStateResidencyTicks::UNDEFINED 496335937000                       # Cumulative time (in ticks) in various power states (Tick)
testsys.realview.flash0.power_state.pwrStateResidencyTicks::UNDEFINED 496335937000                       # Cumulative time (in ticks) in various power states (Tick)
testsys.realview.flash1.power_state.pwrStateResidencyTicks::UNDEFINED 496335937000                       # Cumulative time (in ticks) in various power states (Tick)
testsys.realview.generic_timer_mem.frames0.power_state.pwrStateResidencyTicks::UNDEFINED 496335937000                       # Cumulative time (in ticks) in various power states (Tick)
testsys.realview.generic_timer_mem.frames1.power_state.pwrStateResidencyTicks::UNDEFINED 496335937000                       # Cumulative time (in ticks) in various power states (Tick)
testsys.realview.generic_timer_mem.power_state.pwrStateResidencyTicks::UNDEFINED 496335937000                       # Cumulative time (in ticks) in various power states (Tick)
testsys.realview.gic.power_state.pwrStateResidencyTicks::UNDEFINED 496335937000                       # Cumulative time (in ticks) in various power states (Tick)
testsys.realview.gicv2m.power_state.pwrStateResidencyTicks::UNDEFINED 496335937000                       # Cumulative time (in ticks) in various power states (Tick)
testsys.realview.io_voltage.voltage          3.300000                       # Voltage in Volts (Volt)
testsys.realview.kmi0.power_state.pwrStateResidencyTicks::UNDEFINED 496335937000                       # Cumulative time (in ticks) in various power states (Tick)
testsys.realview.kmi1.power_state.pwrStateResidencyTicks::UNDEFINED 496335937000                       # Cumulative time (in ticks) in various power states (Tick)
testsys.realview.mcc.osc_clcd.clock             42105                       # Clock period in ticks (Tick)
testsys.realview.mcc.osc_mcc.clock              20000                       # Clock period in ticks (Tick)
testsys.realview.mcc.osc_peripheral.clock        41667                       # Clock period in ticks (Tick)
testsys.realview.mcc.osc_system_bus.clock        41667                       # Clock period in ticks (Tick)
testsys.realview.non_trusted_sram.power_state.pwrStateResidencyTicks::UNDEFINED 496335937000                       # Cumulative time (in ticks) in various power states (Tick)
testsys.realview.pci_host.power_state.pwrStateResidencyTicks::UNDEFINED 496335937000                       # Cumulative time (in ticks) in various power states (Tick)
testsys.realview.pwr_ctrl.power_state.pwrStateResidencyTicks::UNDEFINED 496335937000                       # Cumulative time (in ticks) in various power states (Tick)
testsys.realview.realview_io.power_state.pwrStateResidencyTicks::UNDEFINED 496335937000                       # Cumulative time (in ticks) in various power states (Tick)
testsys.realview.rtc.power_state.pwrStateResidencyTicks::UNDEFINED 496335937000                       # Cumulative time (in ticks) in various power states (Tick)
testsys.realview.system_watchdog.power_state.pwrStateResidencyTicks::UNDEFINED 496335937000                       # Cumulative time (in ticks) in various power states (Tick)
testsys.realview.trusted_sram.power_state.pwrStateResidencyTicks::UNDEFINED 496335937000                       # Cumulative time (in ticks) in various power states (Tick)
testsys.realview.trusted_watchdog.power_state.pwrStateResidencyTicks::UNDEFINED 496335937000                       # Cumulative time (in ticks) in various power states (Tick)
testsys.realview.uart0.power_state.pwrStateResidencyTicks::UNDEFINED 496335937000                       # Cumulative time (in ticks) in various power states (Tick)
testsys.realview.uart1.power_state.pwrStateResidencyTicks::UNDEFINED 496335937000                       # Cumulative time (in ticks) in various power states (Tick)
testsys.realview.uart2.power_state.pwrStateResidencyTicks::UNDEFINED 496335937000                       # Cumulative time (in ticks) in various power states (Tick)
testsys.realview.uart3.power_state.pwrStateResidencyTicks::UNDEFINED 496335937000                       # Cumulative time (in ticks) in various power states (Tick)
testsys.realview.vgic.power_state.pwrStateResidencyTicks::UNDEFINED 496335937000                       # Cumulative time (in ticks) in various power states (Tick)
testsys.realview.vio0.power_state.pwrStateResidencyTicks::UNDEFINED 496335937000                       # Cumulative time (in ticks) in various power states (Tick)
testsys.realview.vio1.power_state.pwrStateResidencyTicks::UNDEFINED 496335937000                       # Cumulative time (in ticks) in various power states (Tick)
testsys.realview.vram.power_state.pwrStateResidencyTicks::UNDEFINED 496335937000                       # Cumulative time (in ticks) in various power states (Tick)
testsys.realview.watchdog.power_state.pwrStateResidencyTicks::UNDEFINED 496335937000                       # Cumulative time (in ticks) in various power states (Tick)
testsys.voltage_domain.voltage                      1                       # Voltage in Volts (Volt)
testsys.workload.inst.arm                           0                       # number of arm instructions executed (Count)
testsys.workload.inst.quiesce                     151                       # number of quiesce instructions executed (Count)
testsys.cpu_cluster.cpus0.idleCycles           503787                       # Total number of cycles that the object has spent stopped (Unspecified)
testsys.cpu_cluster.cpus0.tickCycles           146328                       # Number of cycles that the object actually ticked (Unspecified)
testsys.cpu_cluster.cpus1.idleCycles          6715959                       # Total number of cycles that the object has spent stopped (Unspecified)
testsys.cpu_cluster.cpus1.tickCycles         18286450                       # Number of cycles that the object actually ticked (Unspecified)
testsys.cpu_cluster.cpus2.idleCycles           162332                       # Total number of cycles that the object has spent stopped (Unspecified)
testsys.cpu_cluster.cpus2.tickCycles            41929                       # Number of cycles that the object actually ticked (Unspecified)
testsys.cpu_cluster.cpus3.idleCycles           967308                       # Total number of cycles that the object has spent stopped (Unspecified)
testsys.cpu_cluster.cpus3.tickCycles           265415                       # Number of cycles that the object actually ticked (Unspecified)

---------- End Simulation Statistics   ----------
