
---------- Begin Simulation Statistics ----------
simSeconds                                   0.496491                       # Number of seconds simulated (Second)
simTicks                                 496490505000                       # Number of ticks simulated (Tick)
finalTick                                496490505000                       # Number of ticks from beginning of simulation (restored from checkpoints and never reset) (Tick)
simFreq                                  1000000000000                       # The number of ticks per simulated second ((Tick/Second))
hostSeconds                                    474.23                       # Real time elapsed on the host (Second)
hostTickRate                               1046941927                       # The number of ticks simulated per host second (ticks/s) ((Tick/Second))
hostMemory                                    3078876                       # Number of bytes of host memory used (Byte)
simInsts                                    235550795                       # Number of instructions simulated (Count)
simOps                                      259941264                       # Number of ops (including micro ops) simulated (Count)
hostInstRate                                   496702                       # Simulator instruction rate (inst/s) ((Count/Second))
hostOpRate                                     548134                       # Simulator op (including micro ops) rate (op/s) ((Count/Second))
testsys.clk_domain.clock                         1000                       # Clock period in ticks (Tick)
testsys.cpu_cluster.clk_domain.clock              250                       # Clock period in ticks (Tick)
testsys.cpu_cluster.cpus0.numCycles        1985330573                       # Number of cpu cycles simulated (Cycle)
testsys.cpu_cluster.cpus0.numWorkItemsStarted            0                       # Number of work items this cpu started (Count)
testsys.cpu_cluster.cpus0.numWorkItemsCompleted            0                       # Number of work items this cpu completed (Count)
testsys.cpu_cluster.cpus0.dcache.demandHits::cpu_cluster.cpus0.data     37043079                       # number of demand (read+write) hits (Count)
testsys.cpu_cluster.cpus0.dcache.demandHits::total     37043079                       # number of demand (read+write) hits (Count)
testsys.cpu_cluster.cpus0.dcache.overallHits::cpu_cluster.cpus0.data     37089665                       # number of overall hits (Count)
testsys.cpu_cluster.cpus0.dcache.overallHits::total     37089665                       # number of overall hits (Count)
testsys.cpu_cluster.cpus0.dcache.demandMisses::cpu_cluster.cpus0.data      2608974                       # number of demand (read+write) misses (Count)
testsys.cpu_cluster.cpus0.dcache.demandMisses::total      2608974                       # number of demand (read+write) misses (Count)
testsys.cpu_cluster.cpus0.dcache.overallMisses::cpu_cluster.cpus0.data      3118018                       # number of overall misses (Count)
testsys.cpu_cluster.cpus0.dcache.overallMisses::total      3118018                       # number of overall misses (Count)
testsys.cpu_cluster.cpus0.dcache.demandMissLatency::cpu_cluster.cpus0.data  63487095750                       # number of demand (read+write) miss ticks (Tick)
testsys.cpu_cluster.cpus0.dcache.demandMissLatency::total  63487095750                       # number of demand (read+write) miss ticks (Tick)
testsys.cpu_cluster.cpus0.dcache.overallMissLatency::cpu_cluster.cpus0.data  63487095750                       # number of overall miss ticks (Tick)
testsys.cpu_cluster.cpus0.dcache.overallMissLatency::total  63487095750                       # number of overall miss ticks (Tick)
testsys.cpu_cluster.cpus0.dcache.demandAccesses::cpu_cluster.cpus0.data     39652053                       # number of demand (read+write) accesses (Count)
testsys.cpu_cluster.cpus0.dcache.demandAccesses::total     39652053                       # number of demand (read+write) accesses (Count)
testsys.cpu_cluster.cpus0.dcache.overallAccesses::cpu_cluster.cpus0.data     40207683                       # number of overall (read+write) accesses (Count)
testsys.cpu_cluster.cpus0.dcache.overallAccesses::total     40207683                       # number of overall (read+write) accesses (Count)
testsys.cpu_cluster.cpus0.dcache.demandMissRate::cpu_cluster.cpus0.data     0.065797                       # miss rate for demand accesses (Ratio)
testsys.cpu_cluster.cpus0.dcache.demandMissRate::total     0.065797                       # miss rate for demand accesses (Ratio)
testsys.cpu_cluster.cpus0.dcache.overallMissRate::cpu_cluster.cpus0.data     0.077548                       # miss rate for overall accesses (Ratio)
testsys.cpu_cluster.cpus0.dcache.overallMissRate::total     0.077548                       # miss rate for overall accesses (Ratio)
testsys.cpu_cluster.cpus0.dcache.demandAvgMissLatency::cpu_cluster.cpus0.data 24334.123587                       # average overall miss latency ((Cycle/Count))
testsys.cpu_cluster.cpus0.dcache.demandAvgMissLatency::total 24334.123587                       # average overall miss latency ((Cycle/Count))
testsys.cpu_cluster.cpus0.dcache.overallAvgMissLatency::cpu_cluster.cpus0.data 20361.362811                       # average overall miss latency ((Cycle/Count))
testsys.cpu_cluster.cpus0.dcache.overallAvgMissLatency::total 20361.362811                       # average overall miss latency ((Cycle/Count))
testsys.cpu_cluster.cpus0.dcache.blockedCycles::no_mshrs            0                       # number of cycles access was blocked (Cycle)
testsys.cpu_cluster.cpus0.dcache.blockedCycles::no_targets            0                       # number of cycles access was blocked (Cycle)
testsys.cpu_cluster.cpus0.dcache.blockedCauses::no_mshrs            0                       # number of times access was blocked (Count)
testsys.cpu_cluster.cpus0.dcache.blockedCauses::no_targets            0                       # number of times access was blocked (Count)
testsys.cpu_cluster.cpus0.dcache.avgBlocked::no_mshrs          nan                       # average number of cycles each access was blocked ((Cycle/Count))
testsys.cpu_cluster.cpus0.dcache.avgBlocked::no_targets          nan                       # average number of cycles each access was blocked ((Cycle/Count))
testsys.cpu_cluster.cpus0.dcache.writebacks::writebacks      2163017                       # number of writebacks (Count)
testsys.cpu_cluster.cpus0.dcache.writebacks::total      2163017                       # number of writebacks (Count)
testsys.cpu_cluster.cpus0.dcache.demandMshrHits::cpu_cluster.cpus0.data       499563                       # number of demand (read+write) MSHR hits (Count)
testsys.cpu_cluster.cpus0.dcache.demandMshrHits::total       499563                       # number of demand (read+write) MSHR hits (Count)
testsys.cpu_cluster.cpus0.dcache.overallMshrHits::cpu_cluster.cpus0.data       499563                       # number of overall MSHR hits (Count)
testsys.cpu_cluster.cpus0.dcache.overallMshrHits::total       499563                       # number of overall MSHR hits (Count)
testsys.cpu_cluster.cpus0.dcache.demandMshrMisses::cpu_cluster.cpus0.data      2109411                       # number of demand (read+write) MSHR misses (Count)
testsys.cpu_cluster.cpus0.dcache.demandMshrMisses::total      2109411                       # number of demand (read+write) MSHR misses (Count)
testsys.cpu_cluster.cpus0.dcache.overallMshrMisses::cpu_cluster.cpus0.data      2618455                       # number of overall MSHR misses (Count)
testsys.cpu_cluster.cpus0.dcache.overallMshrMisses::total      2618455                       # number of overall MSHR misses (Count)
testsys.cpu_cluster.cpus0.dcache.overallMshrUncacheable::cpu_cluster.cpus0.data        15342                       # number of overall MSHR uncacheable misses (Count)
testsys.cpu_cluster.cpus0.dcache.overallMshrUncacheable::total        15342                       # number of overall MSHR uncacheable misses (Count)
testsys.cpu_cluster.cpus0.dcache.demandMshrMissLatency::cpu_cluster.cpus0.data  46988556000                       # number of demand (read+write) MSHR miss ticks (Tick)
testsys.cpu_cluster.cpus0.dcache.demandMshrMissLatency::total  46988556000                       # number of demand (read+write) MSHR miss ticks (Tick)
testsys.cpu_cluster.cpus0.dcache.overallMshrMissLatency::cpu_cluster.cpus0.data  81152026500                       # number of overall MSHR miss ticks (Tick)
testsys.cpu_cluster.cpus0.dcache.overallMshrMissLatency::total  81152026500                       # number of overall MSHR miss ticks (Tick)
testsys.cpu_cluster.cpus0.dcache.overallMshrUncacheableLatency::cpu_cluster.cpus0.data   1167860250                       # number of overall MSHR uncacheable ticks (Tick)
testsys.cpu_cluster.cpus0.dcache.overallMshrUncacheableLatency::total   1167860250                       # number of overall MSHR uncacheable ticks (Tick)
testsys.cpu_cluster.cpus0.dcache.demandMshrMissRate::cpu_cluster.cpus0.data     0.053198                       # mshr miss ratio for demand accesses (Ratio)
testsys.cpu_cluster.cpus0.dcache.demandMshrMissRate::total     0.053198                       # mshr miss ratio for demand accesses (Ratio)
testsys.cpu_cluster.cpus0.dcache.overallMshrMissRate::cpu_cluster.cpus0.data     0.065123                       # mshr miss ratio for overall accesses (Ratio)
testsys.cpu_cluster.cpus0.dcache.overallMshrMissRate::total     0.065123                       # mshr miss ratio for overall accesses (Ratio)
testsys.cpu_cluster.cpus0.dcache.demandAvgMshrMissLatency::cpu_cluster.cpus0.data 22275.676006                       # average overall mshr miss latency ((Cycle/Count))
testsys.cpu_cluster.cpus0.dcache.demandAvgMshrMissLatency::total 22275.676006                       # average overall mshr miss latency ((Cycle/Count))
testsys.cpu_cluster.cpus0.dcache.overallAvgMshrMissLatency::cpu_cluster.cpus0.data 30992.331929                       # average overall mshr miss latency ((Cycle/Count))
testsys.cpu_cluster.cpus0.dcache.overallAvgMshrMissLatency::total 30992.331929                       # average overall mshr miss latency ((Cycle/Count))
testsys.cpu_cluster.cpus0.dcache.overallAvgMshrUncacheableLatency::cpu_cluster.cpus0.data 76121.773563                       # average overall mshr uncacheable latency ((Cycle/Count))
testsys.cpu_cluster.cpus0.dcache.overallAvgMshrUncacheableLatency::total 76121.773563                       # average overall mshr uncacheable latency ((Cycle/Count))
testsys.cpu_cluster.cpus0.dcache.replacements      2531847                       # number of replacements (Count)
testsys.cpu_cluster.cpus0.dcache.CleanInvalidReq.missLatency::cpu_cluster.cpus0.data    256103000                       # number of CleanInvalidReq miss ticks (Tick)
testsys.cpu_cluster.cpus0.dcache.CleanInvalidReq.missLatency::total    256103000                       # number of CleanInvalidReq miss ticks (Tick)
testsys.cpu_cluster.cpus0.dcache.CleanInvalidReq.avgMissLatency::cpu_cluster.cpus0.data          inf                       # average CleanInvalidReq miss latency ((Tick/Count))
testsys.cpu_cluster.cpus0.dcache.CleanInvalidReq.avgMissLatency::total          inf                       # average CleanInvalidReq miss latency ((Tick/Count))
testsys.cpu_cluster.cpus0.dcache.CleanInvalidReq.mshrMisses::cpu_cluster.cpus0.data        13527                       # number of CleanInvalidReq MSHR misses (Count)
testsys.cpu_cluster.cpus0.dcache.CleanInvalidReq.mshrMisses::total        13527                       # number of CleanInvalidReq MSHR misses (Count)
testsys.cpu_cluster.cpus0.dcache.CleanInvalidReq.mshrMissLatency::cpu_cluster.cpus0.data    253081750                       # number of CleanInvalidReq MSHR miss ticks (Tick)
testsys.cpu_cluster.cpus0.dcache.CleanInvalidReq.mshrMissLatency::total    253081750                       # number of CleanInvalidReq MSHR miss ticks (Tick)
testsys.cpu_cluster.cpus0.dcache.CleanInvalidReq.mshrMissRate::cpu_cluster.cpus0.data          inf                       # mshr miss rate for CleanInvalidReq accesses (Ratio)
testsys.cpu_cluster.cpus0.dcache.CleanInvalidReq.mshrMissRate::total          inf                       # mshr miss rate for CleanInvalidReq accesses (Ratio)
testsys.cpu_cluster.cpus0.dcache.CleanInvalidReq.avgMshrMissLatency::cpu_cluster.cpus0.data 18709.377541                       # average CleanInvalidReq mshr miss latency ((Tick/Count))
testsys.cpu_cluster.cpus0.dcache.CleanInvalidReq.avgMshrMissLatency::total 18709.377541                       # average CleanInvalidReq mshr miss latency ((Tick/Count))
testsys.cpu_cluster.cpus0.dcache.CleanSharedReq.missLatency::cpu_cluster.cpus0.data     17643750                       # number of CleanSharedReq miss ticks (Tick)
testsys.cpu_cluster.cpus0.dcache.CleanSharedReq.missLatency::total     17643750                       # number of CleanSharedReq miss ticks (Tick)
testsys.cpu_cluster.cpus0.dcache.CleanSharedReq.avgMissLatency::cpu_cluster.cpus0.data          inf                       # average CleanSharedReq miss latency ((Tick/Count))
testsys.cpu_cluster.cpus0.dcache.CleanSharedReq.avgMissLatency::total          inf                       # average CleanSharedReq miss latency ((Tick/Count))
testsys.cpu_cluster.cpus0.dcache.CleanSharedReq.mshrMisses::cpu_cluster.cpus0.data        14115                       # number of CleanSharedReq MSHR misses (Count)
testsys.cpu_cluster.cpus0.dcache.CleanSharedReq.mshrMisses::total        14115                       # number of CleanSharedReq MSHR misses (Count)
testsys.cpu_cluster.cpus0.dcache.CleanSharedReq.mshrMissLatency::cpu_cluster.cpus0.data     10600365                       # number of CleanSharedReq MSHR miss ticks (Tick)
testsys.cpu_cluster.cpus0.dcache.CleanSharedReq.mshrMissLatency::total     10600365                       # number of CleanSharedReq MSHR miss ticks (Tick)
testsys.cpu_cluster.cpus0.dcache.CleanSharedReq.mshrMissRate::cpu_cluster.cpus0.data          inf                       # mshr miss rate for CleanSharedReq accesses (Ratio)
testsys.cpu_cluster.cpus0.dcache.CleanSharedReq.mshrMissRate::total          inf                       # mshr miss rate for CleanSharedReq accesses (Ratio)
testsys.cpu_cluster.cpus0.dcache.CleanSharedReq.avgMshrMissLatency::cpu_cluster.cpus0.data          751                       # average CleanSharedReq mshr miss latency ((Tick/Count))
testsys.cpu_cluster.cpus0.dcache.CleanSharedReq.avgMshrMissLatency::total          751                       # average CleanSharedReq mshr miss latency ((Tick/Count))
testsys.cpu_cluster.cpus0.dcache.InvalidateReq.mshrMisses::cpu_cluster.cpus0.data       119812                       # number of InvalidateReq MSHR misses (Count)
testsys.cpu_cluster.cpus0.dcache.InvalidateReq.mshrMisses::total       119812                       # number of InvalidateReq MSHR misses (Count)
testsys.cpu_cluster.cpus0.dcache.InvalidateReq.mshrMissLatency::cpu_cluster.cpus0.data   1647415000                       # number of InvalidateReq MSHR miss ticks (Tick)
testsys.cpu_cluster.cpus0.dcache.InvalidateReq.mshrMissLatency::total   1647415000                       # number of InvalidateReq MSHR miss ticks (Tick)
testsys.cpu_cluster.cpus0.dcache.InvalidateReq.mshrMissRate::cpu_cluster.cpus0.data          inf                       # mshr miss rate for InvalidateReq accesses (Ratio)
testsys.cpu_cluster.cpus0.dcache.InvalidateReq.mshrMissRate::total          inf                       # mshr miss rate for InvalidateReq accesses (Ratio)
testsys.cpu_cluster.cpus0.dcache.InvalidateReq.avgMshrMissLatency::cpu_cluster.cpus0.data        13750                       # average InvalidateReq mshr miss latency ((Tick/Count))
testsys.cpu_cluster.cpus0.dcache.InvalidateReq.avgMshrMissLatency::total        13750                       # average InvalidateReq mshr miss latency ((Tick/Count))
testsys.cpu_cluster.cpus0.dcache.LoadLockedReq.hits::cpu_cluster.cpus0.data        44051                       # number of LoadLockedReq hits (Count)
testsys.cpu_cluster.cpus0.dcache.LoadLockedReq.hits::total        44051                       # number of LoadLockedReq hits (Count)
testsys.cpu_cluster.cpus0.dcache.LoadLockedReq.misses::cpu_cluster.cpus0.data         3274                       # number of LoadLockedReq misses (Count)
testsys.cpu_cluster.cpus0.dcache.LoadLockedReq.misses::total         3274                       # number of LoadLockedReq misses (Count)
testsys.cpu_cluster.cpus0.dcache.LoadLockedReq.missLatency::cpu_cluster.cpus0.data     19293500                       # number of LoadLockedReq miss ticks (Tick)
testsys.cpu_cluster.cpus0.dcache.LoadLockedReq.missLatency::total     19293500                       # number of LoadLockedReq miss ticks (Tick)
testsys.cpu_cluster.cpus0.dcache.LoadLockedReq.accesses::cpu_cluster.cpus0.data        47325                       # number of LoadLockedReq accesses(hits+misses) (Count)
testsys.cpu_cluster.cpus0.dcache.LoadLockedReq.accesses::total        47325                       # number of LoadLockedReq accesses(hits+misses) (Count)
testsys.cpu_cluster.cpus0.dcache.LoadLockedReq.missRate::cpu_cluster.cpus0.data     0.069181                       # miss rate for LoadLockedReq accesses (Ratio)
testsys.cpu_cluster.cpus0.dcache.LoadLockedReq.missRate::total     0.069181                       # miss rate for LoadLockedReq accesses (Ratio)
testsys.cpu_cluster.cpus0.dcache.LoadLockedReq.avgMissLatency::cpu_cluster.cpus0.data  5892.944411                       # average LoadLockedReq miss latency ((Tick/Count))
testsys.cpu_cluster.cpus0.dcache.LoadLockedReq.avgMissLatency::total  5892.944411                       # average LoadLockedReq miss latency ((Tick/Count))
testsys.cpu_cluster.cpus0.dcache.LoadLockedReq.mshrHits::cpu_cluster.cpus0.data         2886                       # number of LoadLockedReq MSHR hits (Count)
testsys.cpu_cluster.cpus0.dcache.LoadLockedReq.mshrHits::total         2886                       # number of LoadLockedReq MSHR hits (Count)
testsys.cpu_cluster.cpus0.dcache.LoadLockedReq.mshrMisses::cpu_cluster.cpus0.data          388                       # number of LoadLockedReq MSHR misses (Count)
testsys.cpu_cluster.cpus0.dcache.LoadLockedReq.mshrMisses::total          388                       # number of LoadLockedReq MSHR misses (Count)
testsys.cpu_cluster.cpus0.dcache.LoadLockedReq.mshrMissLatency::cpu_cluster.cpus0.data      5036500                       # number of LoadLockedReq MSHR miss ticks (Tick)
testsys.cpu_cluster.cpus0.dcache.LoadLockedReq.mshrMissLatency::total      5036500                       # number of LoadLockedReq MSHR miss ticks (Tick)
testsys.cpu_cluster.cpus0.dcache.LoadLockedReq.mshrMissRate::cpu_cluster.cpus0.data     0.008199                       # mshr miss rate for LoadLockedReq accesses (Ratio)
testsys.cpu_cluster.cpus0.dcache.LoadLockedReq.mshrMissRate::total     0.008199                       # mshr miss rate for LoadLockedReq accesses (Ratio)
testsys.cpu_cluster.cpus0.dcache.LoadLockedReq.avgMshrMissLatency::cpu_cluster.cpus0.data 12980.670103                       # average LoadLockedReq mshr miss latency ((Tick/Count))
testsys.cpu_cluster.cpus0.dcache.LoadLockedReq.avgMshrMissLatency::total 12980.670103                       # average LoadLockedReq mshr miss latency ((Tick/Count))
testsys.cpu_cluster.cpus0.dcache.ReadReq.hits::cpu_cluster.cpus0.data     21002541                       # number of ReadReq hits (Count)
testsys.cpu_cluster.cpus0.dcache.ReadReq.hits::total     21002541                       # number of ReadReq hits (Count)
testsys.cpu_cluster.cpus0.dcache.ReadReq.misses::cpu_cluster.cpus0.data      1577419                       # number of ReadReq misses (Count)
testsys.cpu_cluster.cpus0.dcache.ReadReq.misses::total      1577419                       # number of ReadReq misses (Count)
testsys.cpu_cluster.cpus0.dcache.ReadReq.missLatency::cpu_cluster.cpus0.data  39672398000                       # number of ReadReq miss ticks (Tick)
testsys.cpu_cluster.cpus0.dcache.ReadReq.missLatency::total  39672398000                       # number of ReadReq miss ticks (Tick)
testsys.cpu_cluster.cpus0.dcache.ReadReq.accesses::cpu_cluster.cpus0.data     22579960                       # number of ReadReq accesses(hits+misses) (Count)
testsys.cpu_cluster.cpus0.dcache.ReadReq.accesses::total     22579960                       # number of ReadReq accesses(hits+misses) (Count)
testsys.cpu_cluster.cpus0.dcache.ReadReq.missRate::cpu_cluster.cpus0.data     0.069859                       # miss rate for ReadReq accesses (Ratio)
testsys.cpu_cluster.cpus0.dcache.ReadReq.missRate::total     0.069859                       # miss rate for ReadReq accesses (Ratio)
testsys.cpu_cluster.cpus0.dcache.ReadReq.avgMissLatency::cpu_cluster.cpus0.data 25150.196619                       # average ReadReq miss latency ((Tick/Count))
testsys.cpu_cluster.cpus0.dcache.ReadReq.avgMissLatency::total 25150.196619                       # average ReadReq miss latency ((Tick/Count))
testsys.cpu_cluster.cpus0.dcache.ReadReq.mshrHits::cpu_cluster.cpus0.data       499516                       # number of ReadReq MSHR hits (Count)
testsys.cpu_cluster.cpus0.dcache.ReadReq.mshrHits::total       499516                       # number of ReadReq MSHR hits (Count)
testsys.cpu_cluster.cpus0.dcache.ReadReq.mshrMisses::cpu_cluster.cpus0.data      1077903                       # number of ReadReq MSHR misses (Count)
testsys.cpu_cluster.cpus0.dcache.ReadReq.mshrMisses::total      1077903                       # number of ReadReq MSHR misses (Count)
testsys.cpu_cluster.cpus0.dcache.ReadReq.mshrUncacheable::cpu_cluster.cpus0.data         6489                       # number of ReadReq MSHR uncacheable (Count)
testsys.cpu_cluster.cpus0.dcache.ReadReq.mshrUncacheable::total         6489                       # number of ReadReq MSHR uncacheable (Count)
testsys.cpu_cluster.cpus0.dcache.ReadReq.mshrMissLatency::cpu_cluster.cpus0.data  23434566250                       # number of ReadReq MSHR miss ticks (Tick)
testsys.cpu_cluster.cpus0.dcache.ReadReq.mshrMissLatency::total  23434566250                       # number of ReadReq MSHR miss ticks (Tick)
testsys.cpu_cluster.cpus0.dcache.ReadReq.mshrUncacheableLatency::cpu_cluster.cpus0.data   1167860250                       # number of ReadReq MSHR uncacheable ticks (Tick)
testsys.cpu_cluster.cpus0.dcache.ReadReq.mshrUncacheableLatency::total   1167860250                       # number of ReadReq MSHR uncacheable ticks (Tick)
testsys.cpu_cluster.cpus0.dcache.ReadReq.mshrMissRate::cpu_cluster.cpus0.data     0.047737                       # mshr miss rate for ReadReq accesses (Ratio)
testsys.cpu_cluster.cpus0.dcache.ReadReq.mshrMissRate::total     0.047737                       # mshr miss rate for ReadReq accesses (Ratio)
testsys.cpu_cluster.cpus0.dcache.ReadReq.avgMshrMissLatency::cpu_cluster.cpus0.data 21740.886007                       # average ReadReq mshr miss latency ((Tick/Count))
testsys.cpu_cluster.cpus0.dcache.ReadReq.avgMshrMissLatency::total 21740.886007                       # average ReadReq mshr miss latency ((Tick/Count))
testsys.cpu_cluster.cpus0.dcache.ReadReq.avgMshrUncacheableLatency::cpu_cluster.cpus0.data 179975.381415                       # average ReadReq mshr uncacheable latency ((Tick/Count))
testsys.cpu_cluster.cpus0.dcache.ReadReq.avgMshrUncacheableLatency::total 179975.381415                       # average ReadReq mshr uncacheable latency ((Tick/Count))
testsys.cpu_cluster.cpus0.dcache.SoftPFExReq.hits::cpu_cluster.cpus0.data        41738                       # number of SoftPFExReq hits (Count)
testsys.cpu_cluster.cpus0.dcache.SoftPFExReq.hits::total        41738                       # number of SoftPFExReq hits (Count)
testsys.cpu_cluster.cpus0.dcache.SoftPFExReq.misses::cpu_cluster.cpus0.data       502441                       # number of SoftPFExReq misses (Count)
testsys.cpu_cluster.cpus0.dcache.SoftPFExReq.misses::total       502441                       # number of SoftPFExReq misses (Count)
testsys.cpu_cluster.cpus0.dcache.SoftPFExReq.accesses::cpu_cluster.cpus0.data       544179                       # number of SoftPFExReq accesses(hits+misses) (Count)
testsys.cpu_cluster.cpus0.dcache.SoftPFExReq.accesses::total       544179                       # number of SoftPFExReq accesses(hits+misses) (Count)
testsys.cpu_cluster.cpus0.dcache.SoftPFExReq.missRate::cpu_cluster.cpus0.data     0.923301                       # miss rate for SoftPFExReq accesses (Ratio)
testsys.cpu_cluster.cpus0.dcache.SoftPFExReq.missRate::total     0.923301                       # miss rate for SoftPFExReq accesses (Ratio)
testsys.cpu_cluster.cpus0.dcache.SoftPFExReq.mshrMisses::cpu_cluster.cpus0.data       502441                       # number of SoftPFExReq MSHR misses (Count)
testsys.cpu_cluster.cpus0.dcache.SoftPFExReq.mshrMisses::total       502441                       # number of SoftPFExReq MSHR misses (Count)
testsys.cpu_cluster.cpus0.dcache.SoftPFExReq.mshrMissLatency::cpu_cluster.cpus0.data  34068923250                       # number of SoftPFExReq MSHR miss ticks (Tick)
testsys.cpu_cluster.cpus0.dcache.SoftPFExReq.mshrMissLatency::total  34068923250                       # number of SoftPFExReq MSHR miss ticks (Tick)
testsys.cpu_cluster.cpus0.dcache.SoftPFExReq.mshrMissRate::cpu_cluster.cpus0.data     0.923301                       # mshr miss rate for SoftPFExReq accesses (Ratio)
testsys.cpu_cluster.cpus0.dcache.SoftPFExReq.mshrMissRate::total     0.923301                       # mshr miss rate for SoftPFExReq accesses (Ratio)
testsys.cpu_cluster.cpus0.dcache.SoftPFExReq.avgMshrMissLatency::cpu_cluster.cpus0.data 67806.813636                       # average SoftPFExReq mshr miss latency ((Tick/Count))
testsys.cpu_cluster.cpus0.dcache.SoftPFExReq.avgMshrMissLatency::total 67806.813636                       # average SoftPFExReq mshr miss latency ((Tick/Count))
testsys.cpu_cluster.cpus0.dcache.SoftPFReq.hits::cpu_cluster.cpus0.data         4848                       # number of SoftPFReq hits (Count)
testsys.cpu_cluster.cpus0.dcache.SoftPFReq.hits::total         4848                       # number of SoftPFReq hits (Count)
testsys.cpu_cluster.cpus0.dcache.SoftPFReq.misses::cpu_cluster.cpus0.data         6603                       # number of SoftPFReq misses (Count)
testsys.cpu_cluster.cpus0.dcache.SoftPFReq.misses::total         6603                       # number of SoftPFReq misses (Count)
testsys.cpu_cluster.cpus0.dcache.SoftPFReq.accesses::cpu_cluster.cpus0.data        11451                       # number of SoftPFReq accesses(hits+misses) (Count)
testsys.cpu_cluster.cpus0.dcache.SoftPFReq.accesses::total        11451                       # number of SoftPFReq accesses(hits+misses) (Count)
testsys.cpu_cluster.cpus0.dcache.SoftPFReq.missRate::cpu_cluster.cpus0.data     0.576631                       # miss rate for SoftPFReq accesses (Ratio)
testsys.cpu_cluster.cpus0.dcache.SoftPFReq.missRate::total     0.576631                       # miss rate for SoftPFReq accesses (Ratio)
testsys.cpu_cluster.cpus0.dcache.SoftPFReq.mshrMisses::cpu_cluster.cpus0.data         6603                       # number of SoftPFReq MSHR misses (Count)
testsys.cpu_cluster.cpus0.dcache.SoftPFReq.mshrMisses::total         6603                       # number of SoftPFReq MSHR misses (Count)
testsys.cpu_cluster.cpus0.dcache.SoftPFReq.mshrMissLatency::cpu_cluster.cpus0.data     94547250                       # number of SoftPFReq MSHR miss ticks (Tick)
testsys.cpu_cluster.cpus0.dcache.SoftPFReq.mshrMissLatency::total     94547250                       # number of SoftPFReq MSHR miss ticks (Tick)
testsys.cpu_cluster.cpus0.dcache.SoftPFReq.mshrMissRate::cpu_cluster.cpus0.data     0.576631                       # mshr miss rate for SoftPFReq accesses (Ratio)
testsys.cpu_cluster.cpus0.dcache.SoftPFReq.mshrMissRate::total     0.576631                       # mshr miss rate for SoftPFReq accesses (Ratio)
testsys.cpu_cluster.cpus0.dcache.SoftPFReq.avgMshrMissLatency::cpu_cluster.cpus0.data 14318.832349                       # average SoftPFReq mshr miss latency ((Tick/Count))
testsys.cpu_cluster.cpus0.dcache.SoftPFReq.avgMshrMissLatency::total 14318.832349                       # average SoftPFReq mshr miss latency ((Tick/Count))
testsys.cpu_cluster.cpus0.dcache.StoreCondFailReq.missLatency::cpu_cluster.cpus0.data        24000                       # number of StoreCondFailReq miss ticks (Tick)
testsys.cpu_cluster.cpus0.dcache.StoreCondFailReq.missLatency::total        24000                       # number of StoreCondFailReq miss ticks (Tick)
testsys.cpu_cluster.cpus0.dcache.StoreCondFailReq.avgMissLatency::cpu_cluster.cpus0.data          inf                       # average StoreCondFailReq miss latency ((Tick/Count))
testsys.cpu_cluster.cpus0.dcache.StoreCondFailReq.avgMissLatency::total          inf                       # average StoreCondFailReq miss latency ((Tick/Count))
testsys.cpu_cluster.cpus0.dcache.StoreCondFailReq.mshrMissLatency::cpu_cluster.cpus0.data        23500                       # number of StoreCondFailReq MSHR miss ticks (Tick)
testsys.cpu_cluster.cpus0.dcache.StoreCondFailReq.mshrMissLatency::total        23500                       # number of StoreCondFailReq MSHR miss ticks (Tick)
testsys.cpu_cluster.cpus0.dcache.StoreCondFailReq.avgMshrMissLatency::cpu_cluster.cpus0.data          inf                       # average StoreCondFailReq mshr miss latency ((Tick/Count))
testsys.cpu_cluster.cpus0.dcache.StoreCondFailReq.avgMshrMissLatency::total          inf                       # average StoreCondFailReq mshr miss latency ((Tick/Count))
testsys.cpu_cluster.cpus0.dcache.StoreCondReq.hits::cpu_cluster.cpus0.data        47222                       # number of StoreCondReq hits (Count)
testsys.cpu_cluster.cpus0.dcache.StoreCondReq.hits::total        47222                       # number of StoreCondReq hits (Count)
testsys.cpu_cluster.cpus0.dcache.StoreCondReq.misses::cpu_cluster.cpus0.data           30                       # number of StoreCondReq misses (Count)
testsys.cpu_cluster.cpus0.dcache.StoreCondReq.misses::total           30                       # number of StoreCondReq misses (Count)
testsys.cpu_cluster.cpus0.dcache.StoreCondReq.missLatency::cpu_cluster.cpus0.data       118500                       # number of StoreCondReq miss ticks (Tick)
testsys.cpu_cluster.cpus0.dcache.StoreCondReq.missLatency::total       118500                       # number of StoreCondReq miss ticks (Tick)
testsys.cpu_cluster.cpus0.dcache.StoreCondReq.accesses::cpu_cluster.cpus0.data        47252                       # number of StoreCondReq accesses(hits+misses) (Count)
testsys.cpu_cluster.cpus0.dcache.StoreCondReq.accesses::total        47252                       # number of StoreCondReq accesses(hits+misses) (Count)
testsys.cpu_cluster.cpus0.dcache.StoreCondReq.missRate::cpu_cluster.cpus0.data     0.000635                       # miss rate for StoreCondReq accesses (Ratio)
testsys.cpu_cluster.cpus0.dcache.StoreCondReq.missRate::total     0.000635                       # miss rate for StoreCondReq accesses (Ratio)
testsys.cpu_cluster.cpus0.dcache.StoreCondReq.avgMissLatency::cpu_cluster.cpus0.data         3950                       # average StoreCondReq miss latency ((Tick/Count))
testsys.cpu_cluster.cpus0.dcache.StoreCondReq.avgMissLatency::total         3950                       # average StoreCondReq miss latency ((Tick/Count))
testsys.cpu_cluster.cpus0.dcache.StoreCondReq.mshrMisses::cpu_cluster.cpus0.data           30                       # number of StoreCondReq MSHR misses (Count)
testsys.cpu_cluster.cpus0.dcache.StoreCondReq.mshrMisses::total           30                       # number of StoreCondReq MSHR misses (Count)
testsys.cpu_cluster.cpus0.dcache.StoreCondReq.mshrMissLatency::cpu_cluster.cpus0.data       111500                       # number of StoreCondReq MSHR miss ticks (Tick)
testsys.cpu_cluster.cpus0.dcache.StoreCondReq.mshrMissLatency::total       111500                       # number of StoreCondReq MSHR miss ticks (Tick)
testsys.cpu_cluster.cpus0.dcache.StoreCondReq.mshrMissRate::cpu_cluster.cpus0.data     0.000635                       # mshr miss rate for StoreCondReq accesses (Ratio)
testsys.cpu_cluster.cpus0.dcache.StoreCondReq.mshrMissRate::total     0.000635                       # mshr miss rate for StoreCondReq accesses (Ratio)
testsys.cpu_cluster.cpus0.dcache.StoreCondReq.avgMshrMissLatency::cpu_cluster.cpus0.data  3716.666667                       # average StoreCondReq mshr miss latency ((Tick/Count))
testsys.cpu_cluster.cpus0.dcache.StoreCondReq.avgMshrMissLatency::total  3716.666667                       # average StoreCondReq mshr miss latency ((Tick/Count))
testsys.cpu_cluster.cpus0.dcache.SwapReq.hits::cpu_cluster.cpus0.data       187363                       # number of SwapReq hits (Count)
testsys.cpu_cluster.cpus0.dcache.SwapReq.hits::total       187363                       # number of SwapReq hits (Count)
testsys.cpu_cluster.cpus0.dcache.SwapReq.misses::cpu_cluster.cpus0.data        13473                       # number of SwapReq misses (Count)
testsys.cpu_cluster.cpus0.dcache.SwapReq.misses::total        13473                       # number of SwapReq misses (Count)
testsys.cpu_cluster.cpus0.dcache.SwapReq.missLatency::cpu_cluster.cpus0.data     99629500                       # number of SwapReq miss ticks (Tick)
testsys.cpu_cluster.cpus0.dcache.SwapReq.missLatency::total     99629500                       # number of SwapReq miss ticks (Tick)
testsys.cpu_cluster.cpus0.dcache.SwapReq.accesses::cpu_cluster.cpus0.data       200836                       # number of SwapReq accesses(hits+misses) (Count)
testsys.cpu_cluster.cpus0.dcache.SwapReq.accesses::total       200836                       # number of SwapReq accesses(hits+misses) (Count)
testsys.cpu_cluster.cpus0.dcache.SwapReq.missRate::cpu_cluster.cpus0.data     0.067085                       # miss rate for SwapReq accesses (Ratio)
testsys.cpu_cluster.cpus0.dcache.SwapReq.missRate::total     0.067085                       # miss rate for SwapReq accesses (Ratio)
testsys.cpu_cluster.cpus0.dcache.SwapReq.avgMissLatency::cpu_cluster.cpus0.data  7394.752468                       # average SwapReq miss latency ((Tick/Count))
testsys.cpu_cluster.cpus0.dcache.SwapReq.avgMissLatency::total  7394.752468                       # average SwapReq miss latency ((Tick/Count))
testsys.cpu_cluster.cpus0.dcache.SwapReq.mshrMisses::cpu_cluster.cpus0.data        13473                       # number of SwapReq MSHR misses (Count)
testsys.cpu_cluster.cpus0.dcache.SwapReq.mshrMisses::total        13473                       # number of SwapReq MSHR misses (Count)
testsys.cpu_cluster.cpus0.dcache.SwapReq.mshrMissLatency::cpu_cluster.cpus0.data     96261250                       # number of SwapReq MSHR miss ticks (Tick)
testsys.cpu_cluster.cpus0.dcache.SwapReq.mshrMissLatency::total     96261250                       # number of SwapReq MSHR miss ticks (Tick)
testsys.cpu_cluster.cpus0.dcache.SwapReq.mshrMissRate::cpu_cluster.cpus0.data     0.067085                       # mshr miss rate for SwapReq accesses (Ratio)
testsys.cpu_cluster.cpus0.dcache.SwapReq.mshrMissRate::total     0.067085                       # mshr miss rate for SwapReq accesses (Ratio)
testsys.cpu_cluster.cpus0.dcache.SwapReq.avgMshrMissLatency::cpu_cluster.cpus0.data  7144.752468                       # average SwapReq mshr miss latency ((Tick/Count))
testsys.cpu_cluster.cpus0.dcache.SwapReq.avgMshrMissLatency::total  7144.752468                       # average SwapReq mshr miss latency ((Tick/Count))
testsys.cpu_cluster.cpus0.dcache.WriteLineReq.hits::cpu_cluster.cpus0.data        18764                       # number of WriteLineReq hits (Count)
testsys.cpu_cluster.cpus0.dcache.WriteLineReq.hits::total        18764                       # number of WriteLineReq hits (Count)
testsys.cpu_cluster.cpus0.dcache.WriteLineReq.misses::cpu_cluster.cpus0.data       246545                       # number of WriteLineReq misses (Count)
testsys.cpu_cluster.cpus0.dcache.WriteLineReq.misses::total       246545                       # number of WriteLineReq misses (Count)
testsys.cpu_cluster.cpus0.dcache.WriteLineReq.missLatency::cpu_cluster.cpus0.data   3169906250                       # number of WriteLineReq miss ticks (Tick)
testsys.cpu_cluster.cpus0.dcache.WriteLineReq.missLatency::total   3169906250                       # number of WriteLineReq miss ticks (Tick)
testsys.cpu_cluster.cpus0.dcache.WriteLineReq.accesses::cpu_cluster.cpus0.data       265309                       # number of WriteLineReq accesses(hits+misses) (Count)
testsys.cpu_cluster.cpus0.dcache.WriteLineReq.accesses::total       265309                       # number of WriteLineReq accesses(hits+misses) (Count)
testsys.cpu_cluster.cpus0.dcache.WriteLineReq.missRate::cpu_cluster.cpus0.data     0.929275                       # miss rate for WriteLineReq accesses (Ratio)
testsys.cpu_cluster.cpus0.dcache.WriteLineReq.missRate::total     0.929275                       # miss rate for WriteLineReq accesses (Ratio)
testsys.cpu_cluster.cpus0.dcache.WriteLineReq.avgMissLatency::cpu_cluster.cpus0.data 12857.313067                       # average WriteLineReq miss latency ((Tick/Count))
testsys.cpu_cluster.cpus0.dcache.WriteLineReq.avgMissLatency::total 12857.313067                       # average WriteLineReq miss latency ((Tick/Count))
testsys.cpu_cluster.cpus0.dcache.WriteLineReq.mshrMisses::cpu_cluster.cpus0.data       246545                       # number of WriteLineReq MSHR misses (Count)
testsys.cpu_cluster.cpus0.dcache.WriteLineReq.mshrMisses::total       246545                       # number of WriteLineReq MSHR misses (Count)
testsys.cpu_cluster.cpus0.dcache.WriteLineReq.mshrMissLatency::cpu_cluster.cpus0.data   3108270000                       # number of WriteLineReq MSHR miss ticks (Tick)
testsys.cpu_cluster.cpus0.dcache.WriteLineReq.mshrMissLatency::total   3108270000                       # number of WriteLineReq MSHR miss ticks (Tick)
testsys.cpu_cluster.cpus0.dcache.WriteLineReq.mshrMissRate::cpu_cluster.cpus0.data     0.929275                       # mshr miss rate for WriteLineReq accesses (Ratio)
testsys.cpu_cluster.cpus0.dcache.WriteLineReq.mshrMissRate::total     0.929275                       # mshr miss rate for WriteLineReq accesses (Ratio)
testsys.cpu_cluster.cpus0.dcache.WriteLineReq.avgMshrMissLatency::cpu_cluster.cpus0.data 12607.313067                       # average WriteLineReq mshr miss latency ((Tick/Count))
testsys.cpu_cluster.cpus0.dcache.WriteLineReq.avgMshrMissLatency::total 12607.313067                       # average WriteLineReq mshr miss latency ((Tick/Count))
testsys.cpu_cluster.cpus0.dcache.WriteReq.hits::cpu_cluster.cpus0.data     16021774                       # number of WriteReq hits (Count)
testsys.cpu_cluster.cpus0.dcache.WriteReq.hits::total     16021774                       # number of WriteReq hits (Count)
testsys.cpu_cluster.cpus0.dcache.WriteReq.misses::cpu_cluster.cpus0.data       785010                       # number of WriteReq misses (Count)
testsys.cpu_cluster.cpus0.dcache.WriteReq.misses::total       785010                       # number of WriteReq misses (Count)
testsys.cpu_cluster.cpus0.dcache.WriteReq.missLatency::cpu_cluster.cpus0.data  20644791500                       # number of WriteReq miss ticks (Tick)
testsys.cpu_cluster.cpus0.dcache.WriteReq.missLatency::total  20644791500                       # number of WriteReq miss ticks (Tick)
testsys.cpu_cluster.cpus0.dcache.WriteReq.accesses::cpu_cluster.cpus0.data     16806784                       # number of WriteReq accesses(hits+misses) (Count)
testsys.cpu_cluster.cpus0.dcache.WriteReq.accesses::total     16806784                       # number of WriteReq accesses(hits+misses) (Count)
testsys.cpu_cluster.cpus0.dcache.WriteReq.missRate::cpu_cluster.cpus0.data     0.046708                       # miss rate for WriteReq accesses (Ratio)
testsys.cpu_cluster.cpus0.dcache.WriteReq.missRate::total     0.046708                       # miss rate for WriteReq accesses (Ratio)
testsys.cpu_cluster.cpus0.dcache.WriteReq.avgMissLatency::cpu_cluster.cpus0.data 26298.762436                       # average WriteReq miss latency ((Tick/Count))
testsys.cpu_cluster.cpus0.dcache.WriteReq.avgMissLatency::total 26298.762436                       # average WriteReq miss latency ((Tick/Count))
testsys.cpu_cluster.cpus0.dcache.WriteReq.mshrHits::cpu_cluster.cpus0.data           47                       # number of WriteReq MSHR hits (Count)
testsys.cpu_cluster.cpus0.dcache.WriteReq.mshrHits::total           47                       # number of WriteReq MSHR hits (Count)
testsys.cpu_cluster.cpus0.dcache.WriteReq.mshrMisses::cpu_cluster.cpus0.data       784963                       # number of WriteReq MSHR misses (Count)
testsys.cpu_cluster.cpus0.dcache.WriteReq.mshrMisses::total       784963                       # number of WriteReq MSHR misses (Count)
testsys.cpu_cluster.cpus0.dcache.WriteReq.mshrUncacheable::cpu_cluster.cpus0.data         8853                       # number of WriteReq MSHR uncacheable (Count)
testsys.cpu_cluster.cpus0.dcache.WriteReq.mshrUncacheable::total         8853                       # number of WriteReq MSHR uncacheable (Count)
testsys.cpu_cluster.cpus0.dcache.WriteReq.mshrMissLatency::cpu_cluster.cpus0.data  20445719750                       # number of WriteReq MSHR miss ticks (Tick)
testsys.cpu_cluster.cpus0.dcache.WriteReq.mshrMissLatency::total  20445719750                       # number of WriteReq MSHR miss ticks (Tick)
testsys.cpu_cluster.cpus0.dcache.WriteReq.mshrMissRate::cpu_cluster.cpus0.data     0.046705                       # mshr miss rate for WriteReq accesses (Ratio)
testsys.cpu_cluster.cpus0.dcache.WriteReq.mshrMissRate::total     0.046705                       # mshr miss rate for WriteReq accesses (Ratio)
testsys.cpu_cluster.cpus0.dcache.WriteReq.avgMshrMissLatency::cpu_cluster.cpus0.data 26046.730547                       # average WriteReq mshr miss latency ((Tick/Count))
testsys.cpu_cluster.cpus0.dcache.WriteReq.avgMshrMissLatency::total 26046.730547                       # average WriteReq mshr miss latency ((Tick/Count))
testsys.cpu_cluster.cpus0.dcache.power_state.pwrStateResidencyTicks::UNDEFINED 496490505000                       # Cumulative time (in ticks) in various power states (Tick)
testsys.cpu_cluster.cpus0.dcache.tags.tagsInUse   462.348321                       # Average ticks per tags in use ((Tick/Count))
testsys.cpu_cluster.cpus0.dcache.tags.totalRefs     40028306                       # Total number of references to valid blocks. (Count)
testsys.cpu_cluster.cpus0.dcache.tags.sampledRefs      2565352                       # Sample count of references to valid blocks. (Count)
testsys.cpu_cluster.cpus0.dcache.tags.avgRefs    15.603436                       # Average number of references to valid blocks. ((Count/Count))
testsys.cpu_cluster.cpus0.dcache.tags.warmupTick  30063639500                       # The tick when the warmup percentage was hit. (Tick)
testsys.cpu_cluster.cpus0.dcache.tags.occupancies::cpu_cluster.cpus0.data   462.348321                       # Average occupied blocks per tick, per requestor ((Count/Tick))
testsys.cpu_cluster.cpus0.dcache.tags.avgOccs::cpu_cluster.cpus0.data     0.903024                       # Average percentage of cache occupancy ((Ratio/Tick))
testsys.cpu_cluster.cpus0.dcache.tags.avgOccs::total     0.903024                       # Average percentage of cache occupancy ((Ratio/Tick))
testsys.cpu_cluster.cpus0.dcache.tags.occupanciesTaskId::1024          384                       # Occupied blocks per task id (Count)
testsys.cpu_cluster.cpus0.dcache.tags.ageTaskId_1024::2          373                       # Occupied blocks per task id, per block age (Count)
testsys.cpu_cluster.cpus0.dcache.tags.ageTaskId_1024::3           11                       # Occupied blocks per task id, per block age (Count)
testsys.cpu_cluster.cpus0.dcache.tags.ratioOccsTaskId::1024     0.750000                       # Ratio of occupied blocks and all blocks, per task id (Ratio)
testsys.cpu_cluster.cpus0.dcache.tags.tagAccesses     83866452                       # Number of tag accesses (Count)
testsys.cpu_cluster.cpus0.dcache.tags.dataAccesses     83866452                       # Number of data accesses (Count)
testsys.cpu_cluster.cpus0.dcache.tags.power_state.pwrStateResidencyTicks::UNDEFINED 496490505000                       # Cumulative time (in ticks) in various power states (Tick)
testsys.cpu_cluster.cpus0.dtb_walker_cache.demandHits::cpu_cluster.cpus0.mmu.dtb_walker       395376                       # number of demand (read+write) hits (Count)
testsys.cpu_cluster.cpus0.dtb_walker_cache.demandHits::total       395376                       # number of demand (read+write) hits (Count)
testsys.cpu_cluster.cpus0.dtb_walker_cache.overallHits::cpu_cluster.cpus0.mmu.dtb_walker       395376                       # number of overall hits (Count)
testsys.cpu_cluster.cpus0.dtb_walker_cache.overallHits::total       395376                       # number of overall hits (Count)
testsys.cpu_cluster.cpus0.dtb_walker_cache.demandMisses::cpu_cluster.cpus0.mmu.dtb_walker       138898                       # number of demand (read+write) misses (Count)
testsys.cpu_cluster.cpus0.dtb_walker_cache.demandMisses::total       138898                       # number of demand (read+write) misses (Count)
testsys.cpu_cluster.cpus0.dtb_walker_cache.overallMisses::cpu_cluster.cpus0.mmu.dtb_walker       138898                       # number of overall misses (Count)
testsys.cpu_cluster.cpus0.dtb_walker_cache.overallMisses::total       138898                       # number of overall misses (Count)
testsys.cpu_cluster.cpus0.dtb_walker_cache.demandMissLatency::cpu_cluster.cpus0.mmu.dtb_walker   2584857352                       # number of demand (read+write) miss ticks (Tick)
testsys.cpu_cluster.cpus0.dtb_walker_cache.demandMissLatency::total   2584857352                       # number of demand (read+write) miss ticks (Tick)
testsys.cpu_cluster.cpus0.dtb_walker_cache.overallMissLatency::cpu_cluster.cpus0.mmu.dtb_walker   2584857352                       # number of overall miss ticks (Tick)
testsys.cpu_cluster.cpus0.dtb_walker_cache.overallMissLatency::total   2584857352                       # number of overall miss ticks (Tick)
testsys.cpu_cluster.cpus0.dtb_walker_cache.demandAccesses::cpu_cluster.cpus0.mmu.dtb_walker       534274                       # number of demand (read+write) accesses (Count)
testsys.cpu_cluster.cpus0.dtb_walker_cache.demandAccesses::total       534274                       # number of demand (read+write) accesses (Count)
testsys.cpu_cluster.cpus0.dtb_walker_cache.overallAccesses::cpu_cluster.cpus0.mmu.dtb_walker       534274                       # number of overall (read+write) accesses (Count)
testsys.cpu_cluster.cpus0.dtb_walker_cache.overallAccesses::total       534274                       # number of overall (read+write) accesses (Count)
testsys.cpu_cluster.cpus0.dtb_walker_cache.demandMissRate::cpu_cluster.cpus0.mmu.dtb_walker     0.259975                       # miss rate for demand accesses (Ratio)
testsys.cpu_cluster.cpus0.dtb_walker_cache.demandMissRate::total     0.259975                       # miss rate for demand accesses (Ratio)
testsys.cpu_cluster.cpus0.dtb_walker_cache.overallMissRate::cpu_cluster.cpus0.mmu.dtb_walker     0.259975                       # miss rate for overall accesses (Ratio)
testsys.cpu_cluster.cpus0.dtb_walker_cache.overallMissRate::total     0.259975                       # miss rate for overall accesses (Ratio)
testsys.cpu_cluster.cpus0.dtb_walker_cache.demandAvgMissLatency::cpu_cluster.cpus0.mmu.dtb_walker 18609.752135                       # average overall miss latency ((Cycle/Count))
testsys.cpu_cluster.cpus0.dtb_walker_cache.demandAvgMissLatency::total 18609.752135                       # average overall miss latency ((Cycle/Count))
testsys.cpu_cluster.cpus0.dtb_walker_cache.overallAvgMissLatency::cpu_cluster.cpus0.mmu.dtb_walker 18609.752135                       # average overall miss latency ((Cycle/Count))
testsys.cpu_cluster.cpus0.dtb_walker_cache.overallAvgMissLatency::total 18609.752135                       # average overall miss latency ((Cycle/Count))
testsys.cpu_cluster.cpus0.dtb_walker_cache.blockedCycles::no_mshrs            0                       # number of cycles access was blocked (Cycle)
testsys.cpu_cluster.cpus0.dtb_walker_cache.blockedCycles::no_targets            0                       # number of cycles access was blocked (Cycle)
testsys.cpu_cluster.cpus0.dtb_walker_cache.blockedCauses::no_mshrs            0                       # number of times access was blocked (Count)
testsys.cpu_cluster.cpus0.dtb_walker_cache.blockedCauses::no_targets            0                       # number of times access was blocked (Count)
testsys.cpu_cluster.cpus0.dtb_walker_cache.avgBlocked::no_mshrs          nan                       # average number of cycles each access was blocked ((Cycle/Count))
testsys.cpu_cluster.cpus0.dtb_walker_cache.avgBlocked::no_targets          nan                       # average number of cycles each access was blocked ((Cycle/Count))
testsys.cpu_cluster.cpus0.dtb_walker_cache.writebacks::writebacks        90264                       # number of writebacks (Count)
testsys.cpu_cluster.cpus0.dtb_walker_cache.writebacks::total        90264                       # number of writebacks (Count)
testsys.cpu_cluster.cpus0.dtb_walker_cache.demandMshrMisses::cpu_cluster.cpus0.mmu.dtb_walker       138898                       # number of demand (read+write) MSHR misses (Count)
testsys.cpu_cluster.cpus0.dtb_walker_cache.demandMshrMisses::total       138898                       # number of demand (read+write) MSHR misses (Count)
testsys.cpu_cluster.cpus0.dtb_walker_cache.overallMshrMisses::cpu_cluster.cpus0.mmu.dtb_walker       138898                       # number of overall MSHR misses (Count)
testsys.cpu_cluster.cpus0.dtb_walker_cache.overallMshrMisses::total       138898                       # number of overall MSHR misses (Count)
testsys.cpu_cluster.cpus0.dtb_walker_cache.demandMshrMissLatency::cpu_cluster.cpus0.mmu.dtb_walker   2445959352                       # number of demand (read+write) MSHR miss ticks (Tick)
testsys.cpu_cluster.cpus0.dtb_walker_cache.demandMshrMissLatency::total   2445959352                       # number of demand (read+write) MSHR miss ticks (Tick)
testsys.cpu_cluster.cpus0.dtb_walker_cache.overallMshrMissLatency::cpu_cluster.cpus0.mmu.dtb_walker   2445959352                       # number of overall MSHR miss ticks (Tick)
testsys.cpu_cluster.cpus0.dtb_walker_cache.overallMshrMissLatency::total   2445959352                       # number of overall MSHR miss ticks (Tick)
testsys.cpu_cluster.cpus0.dtb_walker_cache.demandMshrMissRate::cpu_cluster.cpus0.mmu.dtb_walker     0.259975                       # mshr miss ratio for demand accesses (Ratio)
testsys.cpu_cluster.cpus0.dtb_walker_cache.demandMshrMissRate::total     0.259975                       # mshr miss ratio for demand accesses (Ratio)
testsys.cpu_cluster.cpus0.dtb_walker_cache.overallMshrMissRate::cpu_cluster.cpus0.mmu.dtb_walker     0.259975                       # mshr miss ratio for overall accesses (Ratio)
testsys.cpu_cluster.cpus0.dtb_walker_cache.overallMshrMissRate::total     0.259975                       # mshr miss ratio for overall accesses (Ratio)
testsys.cpu_cluster.cpus0.dtb_walker_cache.demandAvgMshrMissLatency::cpu_cluster.cpus0.mmu.dtb_walker 17609.752135                       # average overall mshr miss latency ((Cycle/Count))
testsys.cpu_cluster.cpus0.dtb_walker_cache.demandAvgMshrMissLatency::total 17609.752135                       # average overall mshr miss latency ((Cycle/Count))
testsys.cpu_cluster.cpus0.dtb_walker_cache.overallAvgMshrMissLatency::cpu_cluster.cpus0.mmu.dtb_walker 17609.752135                       # average overall mshr miss latency ((Cycle/Count))
testsys.cpu_cluster.cpus0.dtb_walker_cache.overallAvgMshrMissLatency::total 17609.752135                       # average overall mshr miss latency ((Cycle/Count))
testsys.cpu_cluster.cpus0.dtb_walker_cache.replacements        90264                       # number of replacements (Count)
testsys.cpu_cluster.cpus0.dtb_walker_cache.ReadReq.hits::cpu_cluster.cpus0.mmu.dtb_walker       395376                       # number of ReadReq hits (Count)
testsys.cpu_cluster.cpus0.dtb_walker_cache.ReadReq.hits::total       395376                       # number of ReadReq hits (Count)
testsys.cpu_cluster.cpus0.dtb_walker_cache.ReadReq.misses::cpu_cluster.cpus0.mmu.dtb_walker       138898                       # number of ReadReq misses (Count)
testsys.cpu_cluster.cpus0.dtb_walker_cache.ReadReq.misses::total       138898                       # number of ReadReq misses (Count)
testsys.cpu_cluster.cpus0.dtb_walker_cache.ReadReq.missLatency::cpu_cluster.cpus0.mmu.dtb_walker   2584857352                       # number of ReadReq miss ticks (Tick)
testsys.cpu_cluster.cpus0.dtb_walker_cache.ReadReq.missLatency::total   2584857352                       # number of ReadReq miss ticks (Tick)
testsys.cpu_cluster.cpus0.dtb_walker_cache.ReadReq.accesses::cpu_cluster.cpus0.mmu.dtb_walker       534274                       # number of ReadReq accesses(hits+misses) (Count)
testsys.cpu_cluster.cpus0.dtb_walker_cache.ReadReq.accesses::total       534274                       # number of ReadReq accesses(hits+misses) (Count)
testsys.cpu_cluster.cpus0.dtb_walker_cache.ReadReq.missRate::cpu_cluster.cpus0.mmu.dtb_walker     0.259975                       # miss rate for ReadReq accesses (Ratio)
testsys.cpu_cluster.cpus0.dtb_walker_cache.ReadReq.missRate::total     0.259975                       # miss rate for ReadReq accesses (Ratio)
testsys.cpu_cluster.cpus0.dtb_walker_cache.ReadReq.avgMissLatency::cpu_cluster.cpus0.mmu.dtb_walker 18609.752135                       # average ReadReq miss latency ((Tick/Count))
testsys.cpu_cluster.cpus0.dtb_walker_cache.ReadReq.avgMissLatency::total 18609.752135                       # average ReadReq miss latency ((Tick/Count))
testsys.cpu_cluster.cpus0.dtb_walker_cache.ReadReq.mshrMisses::cpu_cluster.cpus0.mmu.dtb_walker       138898                       # number of ReadReq MSHR misses (Count)
testsys.cpu_cluster.cpus0.dtb_walker_cache.ReadReq.mshrMisses::total       138898                       # number of ReadReq MSHR misses (Count)
testsys.cpu_cluster.cpus0.dtb_walker_cache.ReadReq.mshrMissLatency::cpu_cluster.cpus0.mmu.dtb_walker   2445959352                       # number of ReadReq MSHR miss ticks (Tick)
testsys.cpu_cluster.cpus0.dtb_walker_cache.ReadReq.mshrMissLatency::total   2445959352                       # number of ReadReq MSHR miss ticks (Tick)
testsys.cpu_cluster.cpus0.dtb_walker_cache.ReadReq.mshrMissRate::cpu_cluster.cpus0.mmu.dtb_walker     0.259975                       # mshr miss rate for ReadReq accesses (Ratio)
testsys.cpu_cluster.cpus0.dtb_walker_cache.ReadReq.mshrMissRate::total     0.259975                       # mshr miss rate for ReadReq accesses (Ratio)
testsys.cpu_cluster.cpus0.dtb_walker_cache.ReadReq.avgMshrMissLatency::cpu_cluster.cpus0.mmu.dtb_walker 17609.752135                       # average ReadReq mshr miss latency ((Tick/Count))
testsys.cpu_cluster.cpus0.dtb_walker_cache.ReadReq.avgMshrMissLatency::total 17609.752135                       # average ReadReq mshr miss latency ((Tick/Count))
testsys.cpu_cluster.cpus0.dtb_walker_cache.power_state.pwrStateResidencyTicks::UNDEFINED 496490505000                       # Cumulative time (in ticks) in various power states (Tick)
testsys.cpu_cluster.cpus0.dtb_walker_cache.tags.tagsInUse    14.765266                       # Average ticks per tags in use ((Tick/Count))
testsys.cpu_cluster.cpus0.dtb_walker_cache.tags.totalRefs       534274                       # Total number of references to valid blocks. (Count)
testsys.cpu_cluster.cpus0.dtb_walker_cache.tags.sampledRefs       138898                       # Sample count of references to valid blocks. (Count)
testsys.cpu_cluster.cpus0.dtb_walker_cache.tags.avgRefs     3.846520                       # Average number of references to valid blocks. ((Count/Count))
testsys.cpu_cluster.cpus0.dtb_walker_cache.tags.warmupTick  30063469500                       # The tick when the warmup percentage was hit. (Tick)
testsys.cpu_cluster.cpus0.dtb_walker_cache.tags.occupancies::cpu_cluster.cpus0.mmu.dtb_walker    14.765266                       # Average occupied blocks per tick, per requestor ((Count/Tick))
testsys.cpu_cluster.cpus0.dtb_walker_cache.tags.avgOccs::cpu_cluster.cpus0.mmu.dtb_walker     0.922829                       # Average percentage of cache occupancy ((Ratio/Tick))
testsys.cpu_cluster.cpus0.dtb_walker_cache.tags.avgOccs::total     0.922829                       # Average percentage of cache occupancy ((Ratio/Tick))
testsys.cpu_cluster.cpus0.dtb_walker_cache.tags.occupanciesTaskId::1023           16                       # Occupied blocks per task id (Count)
testsys.cpu_cluster.cpus0.dtb_walker_cache.tags.ageTaskId_1023::2           16                       # Occupied blocks per task id, per block age (Count)
testsys.cpu_cluster.cpus0.dtb_walker_cache.tags.ratioOccsTaskId::1023            1                       # Ratio of occupied blocks and all blocks, per task id (Ratio)
testsys.cpu_cluster.cpus0.dtb_walker_cache.tags.tagAccesses      4413090                       # Number of tag accesses (Count)
testsys.cpu_cluster.cpus0.dtb_walker_cache.tags.dataAccesses      4413090                       # Number of data accesses (Count)
testsys.cpu_cluster.cpus0.dtb_walker_cache.tags.power_state.pwrStateResidencyTicks::UNDEFINED 496490505000                       # Cumulative time (in ticks) in various power states (Tick)
testsys.cpu_cluster.cpus0.exec_context.thread_0.numInsts    148102525                       # Number of instructions committed (Count)
testsys.cpu_cluster.cpus0.exec_context.thread_0.numOps    163048570                       # Number of ops (including micro ops) committed (Count)
testsys.cpu_cluster.cpus0.exec_context.thread_0.numIntAluAccesses    145031221                       # Number of integer alu accesses (Count)
testsys.cpu_cluster.cpus0.exec_context.thread_0.numFpAluAccesses            0                       # Number of float alu accesses (Count)
testsys.cpu_cluster.cpus0.exec_context.thread_0.numVecAluAccesses        87687                       # Number of vector alu accesses (Count)
testsys.cpu_cluster.cpus0.exec_context.thread_0.numCallsReturns      8065912                       # Number of times a function call or return occured (Count)
testsys.cpu_cluster.cpus0.exec_context.thread_0.numCondCtrlInsts     22357707                       # Number of instructions that are conditional controls (Count)
testsys.cpu_cluster.cpus0.exec_context.thread_0.numIntInsts    145031221                       # Number of integer instructions (Count)
testsys.cpu_cluster.cpus0.exec_context.thread_0.numFpInsts            0                       # Number of float instructions (Count)
testsys.cpu_cluster.cpus0.exec_context.thread_0.numVecInsts        87687                       # Number of vector instructions (Count)
testsys.cpu_cluster.cpus0.exec_context.thread_0.numIntRegReads    197223015                       # Number of times the integer registers were read (Count)
testsys.cpu_cluster.cpus0.exec_context.thread_0.numIntRegWrites    117499868                       # Number of times the integer registers were written (Count)
testsys.cpu_cluster.cpus0.exec_context.thread_0.numFpRegReads            0                       # Number of times the floating registers were read (Count)
testsys.cpu_cluster.cpus0.exec_context.thread_0.numFpRegWrites            0                       # Number of times the floating registers were written (Count)
testsys.cpu_cluster.cpus0.exec_context.thread_0.numVecRegReads        64536                       # Number of times the vector registers were read (Count)
testsys.cpu_cluster.cpus0.exec_context.thread_0.numVecRegWrites        23297                       # Number of times the vector registers were written (Count)
testsys.cpu_cluster.cpus0.exec_context.thread_0.numVecPredRegReads            0                       # Number of times the predicate registers were read (Count)
testsys.cpu_cluster.cpus0.exec_context.thread_0.numVecPredRegWrites            0                       # Number of times the predicate registers were written (Count)
testsys.cpu_cluster.cpus0.exec_context.thread_0.numCCRegReads     49648761                       # Number of times the CC registers were read (Count)
testsys.cpu_cluster.cpus0.exec_context.thread_0.numCCRegWrites     48136047                       # Number of times the CC registers were written (Count)
testsys.cpu_cluster.cpus0.exec_context.thread_0.numMemRefs     40638258                       # Number of memory refs (Count)
testsys.cpu_cluster.cpus0.exec_context.thread_0.numLoadInsts     23162486                       # Number of load instructions (Count)
testsys.cpu_cluster.cpus0.exec_context.thread_0.numStoreInsts     17475772                       # Number of store instructions (Count)
testsys.cpu_cluster.cpus0.exec_context.thread_0.numIdleCycles 1313463151.998453                       # Number of idle cycles (Cycle)
testsys.cpu_cluster.cpus0.exec_context.thread_0.numBusyCycles 671867421.001547                       # Number of busy cycles (Cycle)
testsys.cpu_cluster.cpus0.exec_context.thread_0.notIdleFraction     0.338416                       # Percentage of non-idle cycles (Ratio)
testsys.cpu_cluster.cpus0.exec_context.thread_0.idleFraction     0.661584                       # Percentage of idle cycles (Ratio)
testsys.cpu_cluster.cpus0.exec_context.thread_0.numBranches     32848251                       # Number of branches fetched (Count)
testsys.cpu_cluster.cpus0.exec_context.thread_0.statExecutedInstType::No_OpClass        34834      0.02%      0.02% # Class of executed instruction. (Count)
testsys.cpu_cluster.cpus0.exec_context.thread_0.statExecutedInstType::IntAlu    121590868     74.57%     74.59% # Class of executed instruction. (Count)
testsys.cpu_cluster.cpus0.exec_context.thread_0.statExecutedInstType::IntMult       717885      0.44%     75.03% # Class of executed instruction. (Count)
testsys.cpu_cluster.cpus0.exec_context.thread_0.statExecutedInstType::IntDiv        17590      0.01%     75.04% # Class of executed instruction. (Count)
testsys.cpu_cluster.cpus0.exec_context.thread_0.statExecutedInstType::FloatAdd            0      0.00%     75.04% # Class of executed instruction. (Count)
testsys.cpu_cluster.cpus0.exec_context.thread_0.statExecutedInstType::FloatCmp            0      0.00%     75.04% # Class of executed instruction. (Count)
testsys.cpu_cluster.cpus0.exec_context.thread_0.statExecutedInstType::FloatCvt            0      0.00%     75.04% # Class of executed instruction. (Count)
testsys.cpu_cluster.cpus0.exec_context.thread_0.statExecutedInstType::FloatMult            0      0.00%     75.04% # Class of executed instruction. (Count)
testsys.cpu_cluster.cpus0.exec_context.thread_0.statExecutedInstType::FloatMultAcc            0      0.00%     75.04% # Class of executed instruction. (Count)
testsys.cpu_cluster.cpus0.exec_context.thread_0.statExecutedInstType::FloatDiv            0      0.00%     75.04% # Class of executed instruction. (Count)
testsys.cpu_cluster.cpus0.exec_context.thread_0.statExecutedInstType::FloatMisc        52056      0.03%     75.08% # Class of executed instruction. (Count)
testsys.cpu_cluster.cpus0.exec_context.thread_0.statExecutedInstType::FloatSqrt            0      0.00%     75.08% # Class of executed instruction. (Count)
testsys.cpu_cluster.cpus0.exec_context.thread_0.statExecutedInstType::SimdAdd            8      0.00%     75.08% # Class of executed instruction. (Count)
testsys.cpu_cluster.cpus0.exec_context.thread_0.statExecutedInstType::SimdAddAcc            0      0.00%     75.08% # Class of executed instruction. (Count)
testsys.cpu_cluster.cpus0.exec_context.thread_0.statExecutedInstType::SimdAlu            9      0.00%     75.08% # Class of executed instruction. (Count)
testsys.cpu_cluster.cpus0.exec_context.thread_0.statExecutedInstType::SimdCmp            0      0.00%     75.08% # Class of executed instruction. (Count)
testsys.cpu_cluster.cpus0.exec_context.thread_0.statExecutedInstType::SimdCvt            0      0.00%     75.08% # Class of executed instruction. (Count)
testsys.cpu_cluster.cpus0.exec_context.thread_0.statExecutedInstType::SimdMisc          655      0.00%     75.08% # Class of executed instruction. (Count)
testsys.cpu_cluster.cpus0.exec_context.thread_0.statExecutedInstType::SimdMult            0      0.00%     75.08% # Class of executed instruction. (Count)
testsys.cpu_cluster.cpus0.exec_context.thread_0.statExecutedInstType::SimdMultAcc            0      0.00%     75.08% # Class of executed instruction. (Count)
testsys.cpu_cluster.cpus0.exec_context.thread_0.statExecutedInstType::SimdShift            0      0.00%     75.08% # Class of executed instruction. (Count)
testsys.cpu_cluster.cpus0.exec_context.thread_0.statExecutedInstType::SimdShiftAcc            0      0.00%     75.08% # Class of executed instruction. (Count)
testsys.cpu_cluster.cpus0.exec_context.thread_0.statExecutedInstType::SimdDiv            0      0.00%     75.08% # Class of executed instruction. (Count)
testsys.cpu_cluster.cpus0.exec_context.thread_0.statExecutedInstType::SimdSqrt            0      0.00%     75.08% # Class of executed instruction. (Count)
testsys.cpu_cluster.cpus0.exec_context.thread_0.statExecutedInstType::SimdFloatAdd            0      0.00%     75.08% # Class of executed instruction. (Count)
testsys.cpu_cluster.cpus0.exec_context.thread_0.statExecutedInstType::SimdFloatAlu            0      0.00%     75.08% # Class of executed instruction. (Count)
testsys.cpu_cluster.cpus0.exec_context.thread_0.statExecutedInstType::SimdFloatCmp            0      0.00%     75.08% # Class of executed instruction. (Count)
testsys.cpu_cluster.cpus0.exec_context.thread_0.statExecutedInstType::SimdFloatCvt            0      0.00%     75.08% # Class of executed instruction. (Count)
testsys.cpu_cluster.cpus0.exec_context.thread_0.statExecutedInstType::SimdFloatDiv            0      0.00%     75.08% # Class of executed instruction. (Count)
testsys.cpu_cluster.cpus0.exec_context.thread_0.statExecutedInstType::SimdFloatMisc            0      0.00%     75.08% # Class of executed instruction. (Count)
testsys.cpu_cluster.cpus0.exec_context.thread_0.statExecutedInstType::SimdFloatMult            0      0.00%     75.08% # Class of executed instruction. (Count)
testsys.cpu_cluster.cpus0.exec_context.thread_0.statExecutedInstType::SimdFloatMultAcc            0      0.00%     75.08% # Class of executed instruction. (Count)
testsys.cpu_cluster.cpus0.exec_context.thread_0.statExecutedInstType::SimdFloatSqrt            0      0.00%     75.08% # Class of executed instruction. (Count)
testsys.cpu_cluster.cpus0.exec_context.thread_0.statExecutedInstType::SimdReduceAdd            0      0.00%     75.08% # Class of executed instruction. (Count)
testsys.cpu_cluster.cpus0.exec_context.thread_0.statExecutedInstType::SimdReduceAlu            0      0.00%     75.08% # Class of executed instruction. (Count)
testsys.cpu_cluster.cpus0.exec_context.thread_0.statExecutedInstType::SimdReduceCmp            0      0.00%     75.08% # Class of executed instruction. (Count)
testsys.cpu_cluster.cpus0.exec_context.thread_0.statExecutedInstType::SimdFloatReduceAdd            0      0.00%     75.08% # Class of executed instruction. (Count)
testsys.cpu_cluster.cpus0.exec_context.thread_0.statExecutedInstType::SimdFloatReduceCmp            0      0.00%     75.08% # Class of executed instruction. (Count)
testsys.cpu_cluster.cpus0.exec_context.thread_0.statExecutedInstType::SimdAes            0      0.00%     75.08% # Class of executed instruction. (Count)
testsys.cpu_cluster.cpus0.exec_context.thread_0.statExecutedInstType::SimdAesMix            0      0.00%     75.08% # Class of executed instruction. (Count)
testsys.cpu_cluster.cpus0.exec_context.thread_0.statExecutedInstType::SimdSha1Hash            0      0.00%     75.08% # Class of executed instruction. (Count)
testsys.cpu_cluster.cpus0.exec_context.thread_0.statExecutedInstType::SimdSha1Hash2            0      0.00%     75.08% # Class of executed instruction. (Count)
testsys.cpu_cluster.cpus0.exec_context.thread_0.statExecutedInstType::SimdSha256Hash            0      0.00%     75.08% # Class of executed instruction. (Count)
testsys.cpu_cluster.cpus0.exec_context.thread_0.statExecutedInstType::SimdSha256Hash2            0      0.00%     75.08% # Class of executed instruction. (Count)
testsys.cpu_cluster.cpus0.exec_context.thread_0.statExecutedInstType::SimdShaSigma2            0      0.00%     75.08% # Class of executed instruction. (Count)
testsys.cpu_cluster.cpus0.exec_context.thread_0.statExecutedInstType::SimdShaSigma3            0      0.00%     75.08% # Class of executed instruction. (Count)
testsys.cpu_cluster.cpus0.exec_context.thread_0.statExecutedInstType::SimdPredAlu            0      0.00%     75.08% # Class of executed instruction. (Count)
testsys.cpu_cluster.cpus0.exec_context.thread_0.statExecutedInstType::MemRead     23162486     14.21%     89.28% # Class of executed instruction. (Count)
testsys.cpu_cluster.cpus0.exec_context.thread_0.statExecutedInstType::MemWrite     17475772     10.72%    100.00% # Class of executed instruction. (Count)
testsys.cpu_cluster.cpus0.exec_context.thread_0.statExecutedInstType::FloatMemRead            0      0.00%    100.00% # Class of executed instruction. (Count)
testsys.cpu_cluster.cpus0.exec_context.thread_0.statExecutedInstType::FloatMemWrite            0      0.00%    100.00% # Class of executed instruction. (Count)
testsys.cpu_cluster.cpus0.exec_context.thread_0.statExecutedInstType::IprAccess            0      0.00%    100.00% # Class of executed instruction. (Count)
testsys.cpu_cluster.cpus0.exec_context.thread_0.statExecutedInstType::InstPrefetch            0      0.00%    100.00% # Class of executed instruction. (Count)
testsys.cpu_cluster.cpus0.exec_context.thread_0.statExecutedInstType::total    163052163                       # Class of executed instruction. (Count)
testsys.cpu_cluster.cpus0.icache.demandHits::cpu_cluster.cpus0.inst    147141479                       # number of demand (read+write) hits (Count)
testsys.cpu_cluster.cpus0.icache.demandHits::total    147141479                       # number of demand (read+write) hits (Count)
testsys.cpu_cluster.cpus0.icache.overallHits::cpu_cluster.cpus0.inst    147141479                       # number of overall hits (Count)
testsys.cpu_cluster.cpus0.icache.overallHits::total    147141479                       # number of overall hits (Count)
testsys.cpu_cluster.cpus0.icache.demandMisses::cpu_cluster.cpus0.inst       483060                       # number of demand (read+write) misses (Count)
testsys.cpu_cluster.cpus0.icache.demandMisses::total       483060                       # number of demand (read+write) misses (Count)
testsys.cpu_cluster.cpus0.icache.overallMisses::cpu_cluster.cpus0.inst       483060                       # number of overall misses (Count)
testsys.cpu_cluster.cpus0.icache.overallMisses::total       483060                       # number of overall misses (Count)
testsys.cpu_cluster.cpus0.icache.demandMissLatency::cpu_cluster.cpus0.inst  12490250750                       # number of demand (read+write) miss ticks (Tick)
testsys.cpu_cluster.cpus0.icache.demandMissLatency::total  12490250750                       # number of demand (read+write) miss ticks (Tick)
testsys.cpu_cluster.cpus0.icache.overallMissLatency::cpu_cluster.cpus0.inst  12490250750                       # number of overall miss ticks (Tick)
testsys.cpu_cluster.cpus0.icache.overallMissLatency::total  12490250750                       # number of overall miss ticks (Tick)
testsys.cpu_cluster.cpus0.icache.demandAccesses::cpu_cluster.cpus0.inst    147624539                       # number of demand (read+write) accesses (Count)
testsys.cpu_cluster.cpus0.icache.demandAccesses::total    147624539                       # number of demand (read+write) accesses (Count)
testsys.cpu_cluster.cpus0.icache.overallAccesses::cpu_cluster.cpus0.inst    147624539                       # number of overall (read+write) accesses (Count)
testsys.cpu_cluster.cpus0.icache.overallAccesses::total    147624539                       # number of overall (read+write) accesses (Count)
testsys.cpu_cluster.cpus0.icache.demandMissRate::cpu_cluster.cpus0.inst     0.003272                       # miss rate for demand accesses (Ratio)
testsys.cpu_cluster.cpus0.icache.demandMissRate::total     0.003272                       # miss rate for demand accesses (Ratio)
testsys.cpu_cluster.cpus0.icache.overallMissRate::cpu_cluster.cpus0.inst     0.003272                       # miss rate for overall accesses (Ratio)
testsys.cpu_cluster.cpus0.icache.overallMissRate::total     0.003272                       # miss rate for overall accesses (Ratio)
testsys.cpu_cluster.cpus0.icache.demandAvgMissLatency::cpu_cluster.cpus0.inst 25856.520412                       # average overall miss latency ((Cycle/Count))
testsys.cpu_cluster.cpus0.icache.demandAvgMissLatency::total 25856.520412                       # average overall miss latency ((Cycle/Count))
testsys.cpu_cluster.cpus0.icache.overallAvgMissLatency::cpu_cluster.cpus0.inst 25856.520412                       # average overall miss latency ((Cycle/Count))
testsys.cpu_cluster.cpus0.icache.overallAvgMissLatency::total 25856.520412                       # average overall miss latency ((Cycle/Count))
testsys.cpu_cluster.cpus0.icache.blockedCycles::no_mshrs            0                       # number of cycles access was blocked (Cycle)
testsys.cpu_cluster.cpus0.icache.blockedCycles::no_targets            0                       # number of cycles access was blocked (Cycle)
testsys.cpu_cluster.cpus0.icache.blockedCauses::no_mshrs            0                       # number of times access was blocked (Count)
testsys.cpu_cluster.cpus0.icache.blockedCauses::no_targets            0                       # number of times access was blocked (Count)
testsys.cpu_cluster.cpus0.icache.avgBlocked::no_mshrs          nan                       # average number of cycles each access was blocked ((Cycle/Count))
testsys.cpu_cluster.cpus0.icache.avgBlocked::no_targets          nan                       # average number of cycles each access was blocked ((Cycle/Count))
testsys.cpu_cluster.cpus0.icache.writebacks::writebacks       482214                       # number of writebacks (Count)
testsys.cpu_cluster.cpus0.icache.writebacks::total       482214                       # number of writebacks (Count)
testsys.cpu_cluster.cpus0.icache.demandMshrMisses::cpu_cluster.cpus0.inst       483060                       # number of demand (read+write) MSHR misses (Count)
testsys.cpu_cluster.cpus0.icache.demandMshrMisses::total       483060                       # number of demand (read+write) MSHR misses (Count)
testsys.cpu_cluster.cpus0.icache.overallMshrMisses::cpu_cluster.cpus0.inst       483060                       # number of overall MSHR misses (Count)
testsys.cpu_cluster.cpus0.icache.overallMshrMisses::total       483060                       # number of overall MSHR misses (Count)
testsys.cpu_cluster.cpus0.icache.overallMshrUncacheable::cpu_cluster.cpus0.inst       481579                       # number of overall MSHR uncacheable misses (Count)
testsys.cpu_cluster.cpus0.icache.overallMshrUncacheable::total       481579                       # number of overall MSHR uncacheable misses (Count)
testsys.cpu_cluster.cpus0.icache.demandMshrMissLatency::cpu_cluster.cpus0.inst  12369485750                       # number of demand (read+write) MSHR miss ticks (Tick)
testsys.cpu_cluster.cpus0.icache.demandMshrMissLatency::total  12369485750                       # number of demand (read+write) MSHR miss ticks (Tick)
testsys.cpu_cluster.cpus0.icache.overallMshrMissLatency::cpu_cluster.cpus0.inst  12369485750                       # number of overall MSHR miss ticks (Tick)
testsys.cpu_cluster.cpus0.icache.overallMshrMissLatency::total  12369485750                       # number of overall MSHR miss ticks (Tick)
testsys.cpu_cluster.cpus0.icache.overallMshrUncacheableLatency::cpu_cluster.cpus0.inst  28074075250                       # number of overall MSHR uncacheable ticks (Tick)
testsys.cpu_cluster.cpus0.icache.overallMshrUncacheableLatency::total  28074075250                       # number of overall MSHR uncacheable ticks (Tick)
testsys.cpu_cluster.cpus0.icache.demandMshrMissRate::cpu_cluster.cpus0.inst     0.003272                       # mshr miss ratio for demand accesses (Ratio)
testsys.cpu_cluster.cpus0.icache.demandMshrMissRate::total     0.003272                       # mshr miss ratio for demand accesses (Ratio)
testsys.cpu_cluster.cpus0.icache.overallMshrMissRate::cpu_cluster.cpus0.inst     0.003272                       # mshr miss ratio for overall accesses (Ratio)
testsys.cpu_cluster.cpus0.icache.overallMshrMissRate::total     0.003272                       # mshr miss ratio for overall accesses (Ratio)
testsys.cpu_cluster.cpus0.icache.demandAvgMshrMissLatency::cpu_cluster.cpus0.inst 25606.520412                       # average overall mshr miss latency ((Cycle/Count))
testsys.cpu_cluster.cpus0.icache.demandAvgMshrMissLatency::total 25606.520412                       # average overall mshr miss latency ((Cycle/Count))
testsys.cpu_cluster.cpus0.icache.overallAvgMshrMissLatency::cpu_cluster.cpus0.inst 25606.520412                       # average overall mshr miss latency ((Cycle/Count))
testsys.cpu_cluster.cpus0.icache.overallAvgMshrMissLatency::total 25606.520412                       # average overall mshr miss latency ((Cycle/Count))
testsys.cpu_cluster.cpus0.icache.overallAvgMshrUncacheableLatency::cpu_cluster.cpus0.inst 58295.887591                       # average overall mshr uncacheable latency ((Cycle/Count))
testsys.cpu_cluster.cpus0.icache.overallAvgMshrUncacheableLatency::total 58295.887591                       # average overall mshr uncacheable latency ((Cycle/Count))
testsys.cpu_cluster.cpus0.icache.replacements       482214                       # number of replacements (Count)
testsys.cpu_cluster.cpus0.icache.ReadReq.hits::cpu_cluster.cpus0.inst    147141479                       # number of ReadReq hits (Count)
testsys.cpu_cluster.cpus0.icache.ReadReq.hits::total    147141479                       # number of ReadReq hits (Count)
testsys.cpu_cluster.cpus0.icache.ReadReq.misses::cpu_cluster.cpus0.inst       483060                       # number of ReadReq misses (Count)
testsys.cpu_cluster.cpus0.icache.ReadReq.misses::total       483060                       # number of ReadReq misses (Count)
testsys.cpu_cluster.cpus0.icache.ReadReq.missLatency::cpu_cluster.cpus0.inst  12490250750                       # number of ReadReq miss ticks (Tick)
testsys.cpu_cluster.cpus0.icache.ReadReq.missLatency::total  12490250750                       # number of ReadReq miss ticks (Tick)
testsys.cpu_cluster.cpus0.icache.ReadReq.accesses::cpu_cluster.cpus0.inst    147624539                       # number of ReadReq accesses(hits+misses) (Count)
testsys.cpu_cluster.cpus0.icache.ReadReq.accesses::total    147624539                       # number of ReadReq accesses(hits+misses) (Count)
[...]
testsys.pci_devices3.EtherDevice.postedTxOk            0                       # Number of TxOk interrupts posted to CPU (Count)
testsys.pci_devices3.EtherDevice.totalTxOk            0                       # Total number of TxOk written to ISR (Count)
testsys.pci_devices3.EtherDevice.coalescedTxOk          nan                       # Average number of TxOk's coalesced into each post ((Count/Count))
testsys.pci_devices3.EtherDevice.postedTxIdle            0                       # Number of TxIdle interrupts posted to CPU (Count)
testsys.pci_devices3.EtherDevice.totalTxIdle            0                       # Total number of TxIdle written to ISR (Count)
testsys.pci_devices3.EtherDevice.coalescedTxIdle          nan                       # Average number of TxIdle's coalesced into each post ((Count/Count))
testsys.pci_devices3.EtherDevice.postedTxDesc            0                       # Number of TxDesc interrupts posted to CPU (Count)
testsys.pci_devices3.EtherDevice.totalTxDesc            0                       # Total number of TxDesc written to ISR (Count)
testsys.pci_devices3.EtherDevice.coalescedTxDesc          nan                       # Average number of TxDesc's coalesced into each post ((Count/Count))
testsys.pci_devices3.EtherDevice.postedRxOrn            0                       # Number of RxOrn posted to CPU (Count)
testsys.pci_devices3.EtherDevice.totalRxOrn            0                       # Total number of RxOrn written to ISR (Count)
testsys.pci_devices3.EtherDevice.coalescedRxOrn          nan                       # Average number of RxOrn's coalesced into each post ((Count/Count))
testsys.pci_devices3.EtherDevice.coalescedTotal          nan                       # Average number of interrupts coalesced into each post ((Count/Count))
testsys.pci_devices3.EtherDevice.droppedPackets            0                       # Number of packets dropped (Count)
testsys.pci_devices3.power_state.pwrStateResidencyTicks::UNDEFINED 496490505000                       # Cumulative time (in ticks) in various power states (Tick)
testsys.pci_devices4.EtherDevice.postedInterrupts            0                       # Number of posts to CPU (Count)
testsys.pci_devices4.EtherDevice.descDmaReads            0                       # Number of descriptors the device read w/ DMA (Count)
testsys.pci_devices4.EtherDevice.descDmaWrites            0                       # Number of descriptors the device wrote w/ DMA (Count)
testsys.pci_devices4.EtherDevice.descDmaRdBytes            0                       # Number of descriptor bytes read w/ DMA (Count)
testsys.pci_devices4.EtherDevice.descDmaWrBytes            0                       # Number of descriptor bytes write w/ DMA (Count)
testsys.pci_devices4.EtherDevice.postedSwi            0                       # Number of software interrupts posted to CPU (Count)
testsys.pci_devices4.EtherDevice.totalSwi            0                       # Total number of Swi written to ISR (Count)
testsys.pci_devices4.EtherDevice.coalescedSwi          nan                       # Average number of Swi's coalesced into each post ((Count/Count))
testsys.pci_devices4.EtherDevice.postedRxIdle            0                       # Number of rxIdle interrupts posted to CPU (Count)
testsys.pci_devices4.EtherDevice.totalRxIdle            0                       # Total number of RxIdle written to ISR (Count)
testsys.pci_devices4.EtherDevice.coalescedRxIdle          nan                       # Average number of RxIdle's coalesced into each post ((Count/Count))
testsys.pci_devices4.EtherDevice.postedRxOk            0                       # Number of RxOk interrupts posted to CPU (Count)
testsys.pci_devices4.EtherDevice.totalRxOk            0                       # Total number of RxOk written to ISR (Count)
testsys.pci_devices4.EtherDevice.coalescedRxOk          nan                       # Average number of RxOk's coalesced into each post ((Count/Count))
testsys.pci_devices4.EtherDevice.postedRxDesc            0                       # Number of RxDesc interrupts posted to CPU (Count)
testsys.pci_devices4.EtherDevice.totalRxDesc            0                       # Total number of RxDesc written to ISR (Count)
testsys.pci_devices4.EtherDevice.coalescedRxDesc          nan                       # Average number of RxDesc's coalesced into each post ((Count/Count))
testsys.pci_devices4.EtherDevice.postedTxOk            0                       # Number of TxOk interrupts posted to CPU (Count)
testsys.pci_devices4.EtherDevice.totalTxOk            0                       # Total number of TxOk written to ISR (Count)
testsys.pci_devices4.EtherDevice.coalescedTxOk          nan                       # Average number of TxOk's coalesced into each post ((Count/Count))
testsys.pci_devices4.EtherDevice.postedTxIdle            0                       # Number of TxIdle interrupts posted to CPU (Count)
testsys.pci_devices4.EtherDevice.totalTxIdle            0                       # Total number of TxIdle written to ISR (Count)
testsys.pci_devices4.EtherDevice.coalescedTxIdle          nan                       # Average number of TxIdle's coalesced into each post ((Count/Count))
testsys.pci_devices4.EtherDevice.postedTxDesc            0                       # Number of TxDesc interrupts posted to CPU (Count)
testsys.pci_devices4.EtherDevice.totalTxDesc            0                       # Total number of TxDesc written to ISR (Count)
testsys.pci_devices4.EtherDevice.coalescedTxDesc          nan                       # Average number of TxDesc's coalesced into each post ((Count/Count))
testsys.pci_devices4.EtherDevice.postedRxOrn            0                       # Number of RxOrn posted to CPU (Count)
testsys.pci_devices4.EtherDevice.totalRxOrn            0                       # Total number of RxOrn written to ISR (Count)
testsys.pci_devices4.EtherDevice.coalescedRxOrn          nan                       # Average number of RxOrn's coalesced into each post ((Count/Count))
testsys.pci_devices4.EtherDevice.coalescedTotal          nan                       # Average number of interrupts coalesced into each post ((Count/Count))
testsys.pci_devices4.EtherDevice.droppedPackets            0                       # Number of packets dropped (Count)
testsys.pci_devices4.power_state.pwrStateResidencyTicks::UNDEFINED 496490505000                       # Cumulative time (in ticks) in various power states (Tick)
testsys.realview.bootmem.bytesRead::cpu_cluster.cpus0.inst          108                       # Number of bytes read from this memory (Byte)
testsys.realview.bootmem.bytesRead::cpu_cluster.cpus0.data           28                       # Number of bytes read from this memory (Byte)
testsys.realview.bootmem.bytesRead::cpu_cluster.cpus1.inst           88                       # Number of bytes read from this memory (Byte)
testsys.realview.bootmem.bytesRead::cpu_cluster.cpus1.data            8                       # Number of bytes read from this memory (Byte)
testsys.realview.bootmem.bytesRead::cpu_cluster.cpus2.inst           88                       # Number of bytes read from this memory (Byte)
testsys.realview.bootmem.bytesRead::cpu_cluster.cpus2.data            8                       # Number of bytes read from this memory (Byte)
testsys.realview.bootmem.bytesRead::cpu_cluster.cpus3.inst           88                       # Number of bytes read from this memory (Byte)
testsys.realview.bootmem.bytesRead::cpu_cluster.cpus3.data            8                       # Number of bytes read from this memory (Byte)
testsys.realview.bootmem.bytesRead::total          424                       # Number of bytes read from this memory (Byte)
testsys.realview.bootmem.bytesInstRead::cpu_cluster.cpus0.inst          108                       # Number of instructions bytes read from this memory (Byte)
testsys.realview.bootmem.bytesInstRead::cpu_cluster.cpus1.inst           88                       # Number of instructions bytes read from this memory (Byte)
testsys.realview.bootmem.bytesInstRead::cpu_cluster.cpus2.inst           88                       # Number of instructions bytes read from this memory (Byte)
testsys.realview.bootmem.bytesInstRead::cpu_cluster.cpus3.inst           88                       # Number of instructions bytes read from this memory (Byte)
testsys.realview.bootmem.bytesInstRead::total          372                       # Number of instructions bytes read from this memory (Byte)
testsys.realview.bootmem.numReads::cpu_cluster.cpus0.inst           27                       # Number of read requests responded to by this memory (Count)
testsys.realview.bootmem.numReads::cpu_cluster.cpus0.data            4                       # Number of read requests responded to by this memory (Count)
testsys.realview.bootmem.numReads::cpu_cluster.cpus1.inst           22                       # Number of read requests responded to by this memory (Count)
testsys.realview.bootmem.numReads::cpu_cluster.cpus1.data            1                       # Number of read requests responded to by this memory (Count)
testsys.realview.bootmem.numReads::cpu_cluster.cpus2.inst           22                       # Number of read requests responded to by this memory (Count)
testsys.realview.bootmem.numReads::cpu_cluster.cpus2.data            1                       # Number of read requests responded to by this memory (Count)
testsys.realview.bootmem.numReads::cpu_cluster.cpus3.inst           22                       # Number of read requests responded to by this memory (Count)
testsys.realview.bootmem.numReads::cpu_cluster.cpus3.data            1                       # Number of read requests responded to by this memory (Count)
testsys.realview.bootmem.numReads::total          100                       # Number of read requests responded to by this memory (Count)
testsys.realview.bootmem.bwRead::cpu_cluster.cpus0.inst          218                       # Total read bandwidth from this memory ((Byte/Second))
testsys.realview.bootmem.bwRead::cpu_cluster.cpus0.data           56                       # Total read bandwidth from this memory ((Byte/Second))
testsys.realview.bootmem.bwRead::cpu_cluster.cpus1.inst          177                       # Total read bandwidth from this memory ((Byte/Second))
testsys.realview.bootmem.bwRead::cpu_cluster.cpus1.data           16                       # Total read bandwidth from this memory ((Byte/Second))
testsys.realview.bootmem.bwRead::cpu_cluster.cpus2.inst          177                       # Total read bandwidth from this memory ((Byte/Second))
testsys.realview.bootmem.bwRead::cpu_cluster.cpus2.data           16                       # Total read bandwidth from this memory ((Byte/Second))
testsys.realview.bootmem.bwRead::cpu_cluster.cpus3.inst          177                       # Total read bandwidth from this memory ((Byte/Second))
testsys.realview.bootmem.bwRead::cpu_cluster.cpus3.data           16                       # Total read bandwidth from this memory ((Byte/Second))
testsys.realview.bootmem.bwRead::total            854                       # Total read bandwidth from this memory ((Byte/Second))
testsys.realview.bootmem.bwInstRead::cpu_cluster.cpus0.inst          218                       # Instruction read bandwidth from this memory ((Byte/Second))
testsys.realview.bootmem.bwInstRead::cpu_cluster.cpus1.inst          177                       # Instruction read bandwidth from this memory ((Byte/Second))
testsys.realview.bootmem.bwInstRead::cpu_cluster.cpus2.inst          177                       # Instruction read bandwidth from this memory ((Byte/Second))
testsys.realview.bootmem.bwInstRead::cpu_cluster.cpus3.inst          177                       # Instruction read bandwidth from this memory ((Byte/Second))
testsys.realview.bootmem.bwInstRead::total          749                       # Instruction read bandwidth from this memory ((Byte/Second))
testsys.realview.bootmem.bwTotal::cpu_cluster.cpus0.inst          218                       # Total bandwidth to/from this memory ((Byte/Second))
testsys.realview.bootmem.bwTotal::cpu_cluster.cpus0.data           56                       # Total bandwidth to/from this memory ((Byte/Second))
testsys.realview.bootmem.bwTotal::cpu_cluster.cpus1.inst          177                       # Total bandwidth to/from this memory ((Byte/Second))
testsys.realview.bootmem.bwTotal::cpu_cluster.cpus1.data           16                       # Total bandwidth to/from this memory ((Byte/Second))
testsys.realview.bootmem.bwTotal::cpu_cluster.cpus2.inst          177                       # Total bandwidth to/from this memory ((Byte/Second))
testsys.realview.bootmem.bwTotal::cpu_cluster.cpus2.data           16                       # Total bandwidth to/from this memory ((Byte/Second))
testsys.realview.bootmem.bwTotal::cpu_cluster.cpus3.inst          177                       # Total bandwidth to/from this memory ((Byte/Second))
testsys.realview.bootmem.bwTotal::cpu_cluster.cpus3.data           16                       # Total bandwidth to/from this memory ((Byte/Second))
testsys.realview.bootmem.bwTotal::total           854                       # Total bandwidth to/from this memory ((Byte/Second))
testsys.realview.bootmem.power_state.pwrStateResidencyTicks::UNDEFINED 496490505000                       # Cumulative time (in ticks) in various power states (Tick)
testsys.realview.clock24MHz.clock               41667                       # Clock period in ticks (Tick)
testsys.realview.clock32KHz.clock            31250000                       # Clock period in ticks (Tick)
testsys.realview.dcc.osc_cpu.clock              16667                       # Clock period in ticks (Tick)
testsys.realview.dcc.osc_ddr.clock              25000                       # Clock period in ticks (Tick)
testsys.realview.dcc.osc_hsbm.clock             25000                       # Clock period in ticks (Tick)
testsys.realview.dcc.osc_pxl.clock              42105                       # Clock period in ticks (Tick)
testsys.realview.dcc.osc_smb.clock              20000                       # Clock period in ticks (Tick)
testsys.realview.dcc.osc_sys.clock              16667                       # Clock period in ticks (Tick)
testsys.realview.el2_watchdog.power_state.pwrStateResidencyTicks::UNDEFINED 496490505000                       # Cumulative time (in ticks) in various power states (Tick)
testsys.realview.energy_ctrl.power_state.pwrStateResidencyTicks::UNDEFINED 496490505000                       # Cumulative time (in ticks) in various power states (Tick)
testsys.realview.flash0.power_state.pwrStateResidencyTicks::UNDEFINED 496490505000                       # Cumulative time (in ticks) in various power states (Tick)
testsys.realview.flash1.power_state.pwrStateResidencyTicks::UNDEFINED 496490505000                       # Cumulative time (in ticks) in various power states (Tick)
testsys.realview.generic_timer_mem.frames0.power_state.pwrStateResidencyTicks::UNDEFINED 496490505000                       # Cumulative time (in ticks) in various power states (Tick)
testsys.realview.generic_timer_mem.frames1.power_state.pwrStateResidencyTicks::UNDEFINED 496490505000                       # Cumulative time (in ticks) in various power states (Tick)
testsys.realview.generic_timer_mem.power_state.pwrStateResidencyTicks::UNDEFINED 496490505000                       # Cumulative time (in ticks) in various power states (Tick)
testsys.realview.gic.power_state.pwrStateResidencyTicks::UNDEFINED 496490505000                       # Cumulative time (in ticks) in various power states (Tick)
testsys.realview.gicv2m.power_state.pwrStateResidencyTicks::UNDEFINED 496490505000                       # Cumulative time (in ticks) in various power states (Tick)
testsys.realview.io_voltage.voltage          3.300000                       # Voltage in Volts (Volt)
testsys.realview.kmi0.power_state.pwrStateResidencyTicks::UNDEFINED 496490505000                       # Cumulative time (in ticks) in various power states (Tick)
testsys.realview.kmi1.power_state.pwrStateResidencyTicks::UNDEFINED 496490505000                       # Cumulative time (in ticks) in various power states (Tick)
testsys.realview.mcc.osc_clcd.clock             42105                       # Clock period in ticks (Tick)
testsys.realview.mcc.osc_mcc.clock              20000                       # Clock period in ticks (Tick)
testsys.realview.mcc.osc_peripheral.clock        41667                       # Clock period in ticks (Tick)
testsys.realview.mcc.osc_system_bus.clock        41667                       # Clock period in ticks (Tick)
testsys.realview.non_trusted_sram.power_state.pwrStateResidencyTicks::UNDEFINED 496490505000                       # Cumulative time (in ticks) in various power states (Tick)
testsys.realview.pci_host.power_state.pwrStateResidencyTicks::UNDEFINED 496490505000                       # Cumulative time (in ticks) in various power states (Tick)
testsys.realview.pwr_ctrl.power_state.pwrStateResidencyTicks::UNDEFINED 496490505000                       # Cumulative time (in ticks) in various power states (Tick)
testsys.realview.realview_io.power_state.pwrStateResidencyTicks::UNDEFINED 496490505000                       # Cumulative time (in ticks) in various power states (Tick)
testsys.realview.rtc.power_state.pwrStateResidencyTicks::UNDEFINED 496490505000                       # Cumulative time (in ticks) in various power states (Tick)
testsys.realview.system_watchdog.power_state.pwrStateResidencyTicks::UNDEFINED 496490505000                       # Cumulative time (in ticks) in various power states (Tick)
testsys.realview.trusted_sram.power_state.pwrStateResidencyTicks::UNDEFINED 496490505000                       # Cumulative time (in ticks) in various power states (Tick)
testsys.realview.trusted_watchdog.power_state.pwrStateResidencyTicks::UNDEFINED 496490505000                       # Cumulative time (in ticks) in various power states (Tick)
testsys.realview.uart0.power_state.pwrStateResidencyTicks::UNDEFINED 496490505000                       # Cumulative time (in ticks) in various power states (Tick)
testsys.realview.uart1.power_state.pwrStateResidencyTicks::UNDEFINED 496490505000                       # Cumulative time (in ticks) in various power states (Tick)
testsys.realview.uart2.power_state.pwrStateResidencyTicks::UNDEFINED 496490505000                       # Cumulative time (in ticks) in various power states (Tick)
testsys.realview.uart3.power_state.pwrStateResidencyTicks::UNDEFINED 496490505000                       # Cumulative time (in ticks) in various power states (Tick)
testsys.realview.vgic.power_state.pwrStateResidencyTicks::UNDEFINED 496490505000                       # Cumulative time (in ticks) in various power states (Tick)
testsys.realview.vio0.power_state.pwrStateResidencyTicks::UNDEFINED 496490505000                       # Cumulative time (in ticks) in various power states (Tick)
testsys.realview.vio1.power_state.pwrStateResidencyTicks::UNDEFINED 496490505000                       # Cumulative time (in ticks) in various power states (Tick)
testsys.realview.vram.power_state.pwrStateResidencyTicks::UNDEFINED 496490505000                       # Cumulative time (in ticks) in various power states (Tick)
testsys.realview.watchdog.power_state.pwrStateResidencyTicks::UNDEFINED 496490505000                       # Cumulative time (in ticks) in various power states (Tick)
testsys.voltage_domain.voltage                      1                       # Voltage in Volts (Volt)
testsys.workload.inst.arm                           0                       # number of arm instructions executed (Count)
testsys.workload.inst.quiesce                    8080                       # number of quiesce instructions executed (Count)

---------- End Simulation Statistics   ----------
