
---------- Begin Simulation Statistics ----------
simSeconds                                   0.047191                       # Number of seconds simulated (Second)
simTicks                                  47191468500                       # Number of ticks simulated (Tick)
finalTick                                 47191468500                       # Number of ticks from beginning of simulation (restored from checkpoints and never reset) (Tick)
simFreq                                  1000000000000                       # The number of ticks per simulated second ((Tick/Second))
hostSeconds                                     52.18                       # Real time elapsed on the host (Second)
hostTickRate                                904419227                       # The number of ticks simulated per host second (ticks/s) ((Tick/Second))
hostMemory                                    2965396                       # Number of bytes of host memory used (Byte)
simInsts                                     30596057                       # Number of instructions simulated (Count)
simOps                                       32545915                       # Number of ops (including micro ops) simulated (Count)
hostInstRate                                   586369                       # Simulator instruction rate (inst/s) ((Count/Second))
hostOpRate                                     623738                       # Simulator op (including micro ops) rate (op/s) ((Count/Second))
testsys.clk_domain.clock                         1000                       # Clock period in ticks (Tick)
testsys.cpu_cluster.clk_domain.clock              250                       # Clock period in ticks (Tick)
testsys.cpu_cluster.cpus0.numCycles         188765874                       # Number of cpu cycles simulated (Cycle)
testsys.cpu_cluster.cpus0.numWorkItemsStarted            0                       # Number of work items this cpu started (Count)
testsys.cpu_cluster.cpus0.numWorkItemsCompleted            0                       # Number of work items this cpu completed (Count)
testsys.cpu_cluster.cpus0.dcache.demandHits::cpu_cluster.cpus0.data      5522715                       # number of demand (read+write) hits (Count)
testsys.cpu_cluster.cpus0.dcache.demandHits::total      5522715                       # number of demand (read+write) hits (Count)
testsys.cpu_cluster.cpus0.dcache.overallHits::cpu_cluster.cpus0.data      5522776                       # number of overall hits (Count)
testsys.cpu_cluster.cpus0.dcache.overallHits::total      5522776                       # number of overall hits (Count)
testsys.cpu_cluster.cpus0.dcache.demandMisses::cpu_cluster.cpus0.data       214566                       # number of demand (read+write) misses (Count)
testsys.cpu_cluster.cpus0.dcache.demandMisses::total       214566                       # number of demand (read+write) misses (Count)
testsys.cpu_cluster.cpus0.dcache.overallMisses::cpu_cluster.cpus0.data       214575                       # number of overall misses (Count)
testsys.cpu_cluster.cpus0.dcache.overallMisses::total       214575                       # number of overall misses (Count)
testsys.cpu_cluster.cpus0.dcache.demandMissLatency::cpu_cluster.cpus0.data   6645650000                       # number of demand (read+write) miss ticks (Tick)
testsys.cpu_cluster.cpus0.dcache.demandMissLatency::total   6645650000                       # number of demand (read+write) miss ticks (Tick)
testsys.cpu_cluster.cpus0.dcache.overallMissLatency::cpu_cluster.cpus0.data   6645650000                       # number of overall miss ticks (Tick)
testsys.cpu_cluster.cpus0.dcache.overallMissLatency::total   6645650000                       # number of overall miss ticks (Tick)
testsys.cpu_cluster.cpus0.dcache.demandAccesses::cpu_cluster.cpus0.data      5737281                       # number of demand (read+write) accesses (Count)
testsys.cpu_cluster.cpus0.dcache.demandAccesses::total      5737281                       # number of demand (read+write) accesses (Count)
testsys.cpu_cluster.cpus0.dcache.overallAccesses::cpu_cluster.cpus0.data      5737351                       # number of overall (read+write) accesses (Count)
testsys.cpu_cluster.cpus0.dcache.overallAccesses::total      5737351                       # number of overall (read+write) accesses (Count)
testsys.cpu_cluster.cpus0.dcache.demandMissRate::cpu_cluster.cpus0.data     0.037399                       # miss rate for demand accesses (Ratio)
testsys.cpu_cluster.cpus0.dcache.demandMissRate::total     0.037399                       # miss rate for demand accesses (Ratio)
testsys.cpu_cluster.cpus0.dcache.overallMissRate::cpu_cluster.cpus0.data     0.037400                       # miss rate for overall accesses (Ratio)
testsys.cpu_cluster.cpus0.dcache.overallMissRate::total     0.037400                       # miss rate for overall accesses (Ratio)
testsys.cpu_cluster.cpus0.dcache.demandAvgMissLatency::cpu_cluster.cpus0.data 30972.521276                       # average overall miss latency ((Cycle/Count))
testsys.cpu_cluster.cpus0.dcache.demandAvgMissLatency::total 30972.521276                       # average overall miss latency ((Cycle/Count))
testsys.cpu_cluster.cpus0.dcache.overallAvgMissLatency::cpu_cluster.cpus0.data 30971.222183                       # average overall miss latency ((Cycle/Count))
testsys.cpu_cluster.cpus0.dcache.overallAvgMissLatency::total 30971.222183                       # average overall miss latency ((Cycle/Count))
testsys.cpu_cluster.cpus0.dcache.blockedCycles::no_mshrs            0                       # number of cycles access was blocked (Cycle)
testsys.cpu_cluster.cpus0.dcache.blockedCycles::no_targets            0                       # number of cycles access was blocked (Cycle)
testsys.cpu_cluster.cpus0.dcache.blockedCauses::no_mshrs            0                       # number of times access was blocked (Count)
testsys.cpu_cluster.cpus0.dcache.blockedCauses::no_targets            0                       # number of times access was blocked (Count)
testsys.cpu_cluster.cpus0.dcache.avgBlocked::no_mshrs          nan                       # average number of cycles each access was blocked ((Cycle/Count))
testsys.cpu_cluster.cpus0.dcache.avgBlocked::no_targets          nan                       # average number of cycles each access was blocked ((Cycle/Count))
testsys.cpu_cluster.cpus0.dcache.writebacks::writebacks       132207                       # number of writebacks (Count)
testsys.cpu_cluster.cpus0.dcache.writebacks::total       132207                       # number of writebacks (Count)
testsys.cpu_cluster.cpus0.dcache.demandMshrMisses::cpu_cluster.cpus0.data       214566                       # number of demand (read+write) MSHR misses (Count)
testsys.cpu_cluster.cpus0.dcache.demandMshrMisses::total       214566                       # number of demand (read+write) MSHR misses (Count)
testsys.cpu_cluster.cpus0.dcache.overallMshrMisses::cpu_cluster.cpus0.data       214575                       # number of overall MSHR misses (Count)
testsys.cpu_cluster.cpus0.dcache.overallMshrMisses::total       214575                       # number of overall MSHR misses (Count)
testsys.cpu_cluster.cpus0.dcache.overallMshrUncacheable::cpu_cluster.cpus0.data         2597                       # number of overall MSHR uncacheable misses (Count)
testsys.cpu_cluster.cpus0.dcache.overallMshrUncacheable::total         2597                       # number of overall MSHR uncacheable misses (Count)
testsys.cpu_cluster.cpus0.dcache.demandMshrMissLatency::cpu_cluster.cpus0.data   6592008500                       # number of demand (read+write) MSHR miss ticks (Tick)
testsys.cpu_cluster.cpus0.dcache.demandMshrMissLatency::total   6592008500                       # number of demand (read+write) MSHR miss ticks (Tick)
testsys.cpu_cluster.cpus0.dcache.overallMshrMissLatency::cpu_cluster.cpus0.data   6592370750                       # number of overall MSHR miss ticks (Tick)
testsys.cpu_cluster.cpus0.dcache.overallMshrMissLatency::total   6592370750                       # number of overall MSHR miss ticks (Tick)
testsys.cpu_cluster.cpus0.dcache.overallMshrUncacheableLatency::cpu_cluster.cpus0.data       436000                       # number of overall MSHR uncacheable ticks (Tick)
testsys.cpu_cluster.cpus0.dcache.overallMshrUncacheableLatency::total       436000                       # number of overall MSHR uncacheable ticks (Tick)
testsys.cpu_cluster.cpus0.dcache.demandMshrMissRate::cpu_cluster.cpus0.data     0.037399                       # mshr miss ratio for demand accesses (Ratio)
testsys.cpu_cluster.cpus0.dcache.demandMshrMissRate::total     0.037399                       # mshr miss ratio for demand accesses (Ratio)
testsys.cpu_cluster.cpus0.dcache.overallMshrMissRate::cpu_cluster.cpus0.data     0.037400                       # mshr miss ratio for overall accesses (Ratio)
testsys.cpu_cluster.cpus0.dcache.overallMshrMissRate::total     0.037400                       # mshr miss ratio for overall accesses (Ratio)
testsys.cpu_cluster.cpus0.dcache.demandAvgMshrMissLatency::cpu_cluster.cpus0.data 30722.521276                       # average overall mshr miss latency ((Cycle/Count))
testsys.cpu_cluster.cpus0.dcache.demandAvgMshrMissLatency::total 30722.521276                       # average overall mshr miss latency ((Cycle/Count))
testsys.cpu_cluster.cpus0.dcache.overallAvgMshrMissLatency::cpu_cluster.cpus0.data 30722.920890                       # average overall mshr miss latency ((Cycle/Count))
testsys.cpu_cluster.cpus0.dcache.overallAvgMshrMissLatency::total 30722.920890                       # average overall mshr miss latency ((Cycle/Count))
testsys.cpu_cluster.cpus0.dcache.overallAvgMshrUncacheableLatency::cpu_cluster.cpus0.data   167.886022                       # average overall mshr uncacheable latency ((Cycle/Count))
testsys.cpu_cluster.cpus0.dcache.overallAvgMshrUncacheableLatency::total   167.886022                       # average overall mshr uncacheable latency ((Cycle/Count))
testsys.cpu_cluster.cpus0.dcache.replacements       191849                       # number of replacements (Count)
testsys.cpu_cluster.cpus0.dcache.CleanInvalidReq.missLatency::cpu_cluster.cpus0.data        19000                       # number of CleanInvalidReq miss ticks (Tick)
testsys.cpu_cluster.cpus0.dcache.CleanInvalidReq.missLatency::total        19000                       # number of CleanInvalidReq miss ticks (Tick)
testsys.cpu_cluster.cpus0.dcache.CleanInvalidReq.avgMissLatency::cpu_cluster.cpus0.data          inf                       # average CleanInvalidReq miss latency ((Tick/Count))
testsys.cpu_cluster.cpus0.dcache.CleanInvalidReq.avgMissLatency::total          inf                       # average CleanInvalidReq miss latency ((Tick/Count))
testsys.cpu_cluster.cpus0.dcache.CleanInvalidReq.mshrMisses::cpu_cluster.cpus0.data            2                       # number of CleanInvalidReq MSHR misses (Count)
testsys.cpu_cluster.cpus0.dcache.CleanInvalidReq.mshrMisses::total            2                       # number of CleanInvalidReq MSHR misses (Count)
testsys.cpu_cluster.cpus0.dcache.CleanInvalidReq.mshrMissLatency::cpu_cluster.cpus0.data        32500                       # number of CleanInvalidReq MSHR miss ticks (Tick)
testsys.cpu_cluster.cpus0.dcache.CleanInvalidReq.mshrMissLatency::total        32500                       # number of CleanInvalidReq MSHR miss ticks (Tick)
testsys.cpu_cluster.cpus0.dcache.CleanInvalidReq.mshrMissRate::cpu_cluster.cpus0.data          inf                       # mshr miss rate for CleanInvalidReq accesses (Ratio)
testsys.cpu_cluster.cpus0.dcache.CleanInvalidReq.mshrMissRate::total          inf                       # mshr miss rate for CleanInvalidReq accesses (Ratio)
testsys.cpu_cluster.cpus0.dcache.CleanInvalidReq.avgMshrMissLatency::cpu_cluster.cpus0.data        16250                       # average CleanInvalidReq mshr miss latency ((Tick/Count))
testsys.cpu_cluster.cpus0.dcache.CleanInvalidReq.avgMshrMissLatency::total        16250                       # average CleanInvalidReq mshr miss latency ((Tick/Count))
testsys.cpu_cluster.cpus0.dcache.InvalidateReq.mshrMisses::cpu_cluster.cpus0.data       119812                       # number of InvalidateReq MSHR misses (Count)
testsys.cpu_cluster.cpus0.dcache.InvalidateReq.mshrMisses::total       119812                       # number of InvalidateReq MSHR misses (Count)
testsys.cpu_cluster.cpus0.dcache.InvalidateReq.mshrMissLatency::cpu_cluster.cpus0.data   1647415000                       # number of InvalidateReq MSHR miss ticks (Tick)
testsys.cpu_cluster.cpus0.dcache.InvalidateReq.mshrMissLatency::total   1647415000                       # number of InvalidateReq MSHR miss ticks (Tick)
testsys.cpu_cluster.cpus0.dcache.InvalidateReq.mshrMissRate::cpu_cluster.cpus0.data          inf                       # mshr miss rate for InvalidateReq accesses (Ratio)
testsys.cpu_cluster.cpus0.dcache.InvalidateReq.mshrMissRate::total          inf                       # mshr miss rate for InvalidateReq accesses (Ratio)
testsys.cpu_cluster.cpus0.dcache.InvalidateReq.avgMshrMissLatency::cpu_cluster.cpus0.data        13750                       # average InvalidateReq mshr miss latency ((Tick/Count))
testsys.cpu_cluster.cpus0.dcache.InvalidateReq.avgMshrMissLatency::total        13750                       # average InvalidateReq mshr miss latency ((Tick/Count))
testsys.cpu_cluster.cpus0.dcache.LoadLockedReq.hits::cpu_cluster.cpus0.data          129                       # number of LoadLockedReq hits (Count)
testsys.cpu_cluster.cpus0.dcache.LoadLockedReq.hits::total          129                       # number of LoadLockedReq hits (Count)
testsys.cpu_cluster.cpus0.dcache.LoadLockedReq.misses::cpu_cluster.cpus0.data            9                       # number of LoadLockedReq misses (Count)
testsys.cpu_cluster.cpus0.dcache.LoadLockedReq.misses::total            9                       # number of LoadLockedReq misses (Count)
testsys.cpu_cluster.cpus0.dcache.LoadLockedReq.missLatency::cpu_cluster.cpus0.data       357750                       # number of LoadLockedReq miss ticks (Tick)
testsys.cpu_cluster.cpus0.dcache.LoadLockedReq.missLatency::total       357750                       # number of LoadLockedReq miss ticks (Tick)
testsys.cpu_cluster.cpus0.dcache.LoadLockedReq.accesses::cpu_cluster.cpus0.data          138                       # number of LoadLockedReq accesses(hits+misses) (Count)
testsys.cpu_cluster.cpus0.dcache.LoadLockedReq.accesses::total          138                       # number of LoadLockedReq accesses(hits+misses) (Count)
testsys.cpu_cluster.cpus0.dcache.LoadLockedReq.missRate::cpu_cluster.cpus0.data     0.065217                       # miss rate for LoadLockedReq accesses (Ratio)
testsys.cpu_cluster.cpus0.dcache.LoadLockedReq.missRate::total     0.065217                       # miss rate for LoadLockedReq accesses (Ratio)
testsys.cpu_cluster.cpus0.dcache.LoadLockedReq.avgMissLatency::cpu_cluster.cpus0.data        39750                       # average LoadLockedReq miss latency ((Tick/Count))
testsys.cpu_cluster.cpus0.dcache.LoadLockedReq.avgMissLatency::total        39750                       # average LoadLockedReq miss latency ((Tick/Count))
testsys.cpu_cluster.cpus0.dcache.LoadLockedReq.mshrHits::cpu_cluster.cpus0.data            9                       # number of LoadLockedReq MSHR hits (Count)
testsys.cpu_cluster.cpus0.dcache.LoadLockedReq.mshrHits::total            9                       # number of LoadLockedReq MSHR hits (Count)
testsys.cpu_cluster.cpus0.dcache.ReadReq.hits::cpu_cluster.cpus0.data      3573167                       # number of ReadReq hits (Count)
testsys.cpu_cluster.cpus0.dcache.ReadReq.hits::total      3573167                       # number of ReadReq hits (Count)
testsys.cpu_cluster.cpus0.dcache.ReadReq.misses::cpu_cluster.cpus0.data        95604                       # number of ReadReq misses (Count)
testsys.cpu_cluster.cpus0.dcache.ReadReq.misses::total        95604                       # number of ReadReq misses (Count)
testsys.cpu_cluster.cpus0.dcache.ReadReq.missLatency::cpu_cluster.cpus0.data   3269503250                       # number of ReadReq miss ticks (Tick)
testsys.cpu_cluster.cpus0.dcache.ReadReq.missLatency::total   3269503250                       # number of ReadReq miss ticks (Tick)
testsys.cpu_cluster.cpus0.dcache.ReadReq.accesses::cpu_cluster.cpus0.data      3668771                       # number of ReadReq accesses(hits+misses) (Count)
testsys.cpu_cluster.cpus0.dcache.ReadReq.accesses::total      3668771                       # number of ReadReq accesses(hits+misses) (Count)
testsys.cpu_cluster.cpus0.dcache.ReadReq.missRate::cpu_cluster.cpus0.data     0.026059                       # miss rate for ReadReq accesses (Ratio)
testsys.cpu_cluster.cpus0.dcache.ReadReq.missRate::total     0.026059                       # miss rate for ReadReq accesses (Ratio)
testsys.cpu_cluster.cpus0.dcache.ReadReq.avgMissLatency::cpu_cluster.cpus0.data 34198.393896                       # average ReadReq miss latency ((Tick/Count))
testsys.cpu_cluster.cpus0.dcache.ReadReq.avgMissLatency::total 34198.393896                       # average ReadReq miss latency ((Tick/Count))
testsys.cpu_cluster.cpus0.dcache.ReadReq.mshrMisses::cpu_cluster.cpus0.data        95604                       # number of ReadReq MSHR misses (Count)
testsys.cpu_cluster.cpus0.dcache.ReadReq.mshrMisses::total        95604                       # number of ReadReq MSHR misses (Count)
testsys.cpu_cluster.cpus0.dcache.ReadReq.mshrUncacheable::cpu_cluster.cpus0.data            8                       # number of ReadReq MSHR uncacheable (Count)
testsys.cpu_cluster.cpus0.dcache.ReadReq.mshrUncacheable::total            8                       # number of ReadReq MSHR uncacheable (Count)
testsys.cpu_cluster.cpus0.dcache.ReadReq.mshrMissLatency::cpu_cluster.cpus0.data   3245602250                       # number of ReadReq MSHR miss ticks (Tick)
testsys.cpu_cluster.cpus0.dcache.ReadReq.mshrMissLatency::total   3245602250                       # number of ReadReq MSHR miss ticks (Tick)
testsys.cpu_cluster.cpus0.dcache.ReadReq.mshrUncacheableLatency::cpu_cluster.cpus0.data       436000                       # number of ReadReq MSHR uncacheable ticks (Tick)
testsys.cpu_cluster.cpus0.dcache.ReadReq.mshrUncacheableLatency::total       436000                       # number of ReadReq MSHR uncacheable ticks (Tick)
testsys.cpu_cluster.cpus0.dcache.ReadReq.mshrMissRate::cpu_cluster.cpus0.data     0.026059                       # mshr miss rate for ReadReq accesses (Ratio)
testsys.cpu_cluster.cpus0.dcache.ReadReq.mshrMissRate::total     0.026059                       # mshr miss rate for ReadReq accesses (Ratio)
testsys.cpu_cluster.cpus0.dcache.ReadReq.avgMshrMissLatency::cpu_cluster.cpus0.data 33948.393896                       # average ReadReq mshr miss latency ((Tick/Count))
testsys.cpu_cluster.cpus0.dcache.ReadReq.avgMshrMissLatency::total 33948.393896                       # average ReadReq mshr miss latency ((Tick/Count))
testsys.cpu_cluster.cpus0.dcache.ReadReq.avgMshrUncacheableLatency::cpu_cluster.cpus0.data        54500                       # average ReadReq mshr uncacheable latency ((Tick/Count))
testsys.cpu_cluster.cpus0.dcache.ReadReq.avgMshrUncacheableLatency::total        54500                       # average ReadReq mshr uncacheable latency ((Tick/Count))
testsys.cpu_cluster.cpus0.dcache.SoftPFExReq.hits::cpu_cluster.cpus0.data           61                       # number of SoftPFExReq hits (Count)
testsys.cpu_cluster.cpus0.dcache.SoftPFExReq.hits::total           61                       # number of SoftPFExReq hits (Count)
testsys.cpu_cluster.cpus0.dcache.SoftPFExReq.misses::cpu_cluster.cpus0.data            9                       # number of SoftPFExReq misses (Count)
testsys.cpu_cluster.cpus0.dcache.SoftPFExReq.misses::total            9                       # number of SoftPFExReq misses (Count)
testsys.cpu_cluster.cpus0.dcache.SoftPFExReq.accesses::cpu_cluster.cpus0.data           70                       # number of SoftPFExReq accesses(hits+misses) (Count)
testsys.cpu_cluster.cpus0.dcache.SoftPFExReq.accesses::total           70                       # number of SoftPFExReq accesses(hits+misses) (Count)
testsys.cpu_cluster.cpus0.dcache.SoftPFExReq.missRate::cpu_cluster.cpus0.data     0.128571                       # miss rate for SoftPFExReq accesses (Ratio)
testsys.cpu_cluster.cpus0.dcache.SoftPFExReq.missRate::total     0.128571                       # miss rate for SoftPFExReq accesses (Ratio)
testsys.cpu_cluster.cpus0.dcache.SoftPFExReq.mshrMisses::cpu_cluster.cpus0.data            9                       # number of SoftPFExReq MSHR misses (Count)
testsys.cpu_cluster.cpus0.dcache.SoftPFExReq.mshrMisses::total            9                       # number of SoftPFExReq MSHR misses (Count)
testsys.cpu_cluster.cpus0.dcache.SoftPFExReq.mshrMissLatency::cpu_cluster.cpus0.data       362250                       # number of SoftPFExReq MSHR miss ticks (Tick)
testsys.cpu_cluster.cpus0.dcache.SoftPFExReq.mshrMissLatency::total       362250                       # number of SoftPFExReq MSHR miss ticks (Tick)
testsys.cpu_cluster.cpus0.dcache.SoftPFExReq.mshrMissRate::cpu_cluster.cpus0.data     0.128571                       # mshr miss rate for SoftPFExReq accesses (Ratio)
testsys.cpu_cluster.cpus0.dcache.SoftPFExReq.mshrMissRate::total     0.128571                       # mshr miss rate for SoftPFExReq accesses (Ratio)
testsys.cpu_cluster.cpus0.dcache.SoftPFExReq.avgMshrMissLatency::cpu_cluster.cpus0.data        40250                       # average SoftPFExReq mshr miss latency ((Tick/Count))
testsys.cpu_cluster.cpus0.dcache.SoftPFExReq.avgMshrMissLatency::total        40250                       # average SoftPFExReq mshr miss latency ((Tick/Count))
testsys.cpu_cluster.cpus0.dcache.StoreCondReq.hits::cpu_cluster.cpus0.data          138                       # number of StoreCondReq hits (Count)
testsys.cpu_cluster.cpus0.dcache.StoreCondReq.hits::total          138                       # number of StoreCondReq hits (Count)
testsys.cpu_cluster.cpus0.dcache.StoreCondReq.accesses::cpu_cluster.cpus0.data          138                       # number of StoreCondReq accesses(hits+misses) (Count)
testsys.cpu_cluster.cpus0.dcache.StoreCondReq.accesses::total          138                       # number of StoreCondReq accesses(hits+misses) (Count)
testsys.cpu_cluster.cpus0.dcache.WriteLineReq.misses::cpu_cluster.cpus0.data        50595                       # number of WriteLineReq misses (Count)
testsys.cpu_cluster.cpus0.dcache.WriteLineReq.misses::total        50595                       # number of WriteLineReq misses (Count)
testsys.cpu_cluster.cpus0.dcache.WriteLineReq.missLatency::cpu_cluster.cpus0.data    709609250                       # number of WriteLineReq miss ticks (Tick)
testsys.cpu_cluster.cpus0.dcache.WriteLineReq.missLatency::total    709609250                       # number of WriteLineReq miss ticks (Tick)
testsys.cpu_cluster.cpus0.dcache.WriteLineReq.accesses::cpu_cluster.cpus0.data        50595                       # number of WriteLineReq accesses(hits+misses) (Count)
testsys.cpu_cluster.cpus0.dcache.WriteLineReq.accesses::total        50595                       # number of WriteLineReq accesses(hits+misses) (Count)
testsys.cpu_cluster.cpus0.dcache.WriteLineReq.missRate::cpu_cluster.cpus0.data            1                       # miss rate for WriteLineReq accesses (Ratio)
testsys.cpu_cluster.cpus0.dcache.WriteLineReq.missRate::total            1                       # miss rate for WriteLineReq accesses (Ratio)
testsys.cpu_cluster.cpus0.dcache.WriteLineReq.avgMissLatency::cpu_cluster.cpus0.data 14025.284119                       # average WriteLineReq miss latency ((Tick/Count))
testsys.cpu_cluster.cpus0.dcache.WriteLineReq.avgMissLatency::total 14025.284119                       # average WriteLineReq miss latency ((Tick/Count))
testsys.cpu_cluster.cpus0.dcache.WriteLineReq.mshrMisses::cpu_cluster.cpus0.data        50595                       # number of WriteLineReq MSHR misses (Count)
testsys.cpu_cluster.cpus0.dcache.WriteLineReq.mshrMisses::total        50595                       # number of WriteLineReq MSHR misses (Count)
testsys.cpu_cluster.cpus0.dcache.WriteLineReq.mshrMissLatency::cpu_cluster.cpus0.data    696960500                       # number of WriteLineReq MSHR miss ticks (Tick)
testsys.cpu_cluster.cpus0.dcache.WriteLineReq.mshrMissLatency::total    696960500                       # number of WriteLineReq MSHR miss ticks (Tick)
testsys.cpu_cluster.cpus0.dcache.WriteLineReq.mshrMissRate::cpu_cluster.cpus0.data            1                       # mshr miss rate for WriteLineReq accesses (Ratio)
testsys.cpu_cluster.cpus0.dcache.WriteLineReq.mshrMissRate::total            1                       # mshr miss rate for WriteLineReq accesses (Ratio)
testsys.cpu_cluster.cpus0.dcache.WriteLineReq.avgMshrMissLatency::cpu_cluster.cpus0.data 13775.284119                       # average WriteLineReq mshr miss latency ((Tick/Count))
testsys.cpu_cluster.cpus0.dcache.WriteLineReq.avgMshrMissLatency::total 13775.284119                       # average WriteLineReq mshr miss latency ((Tick/Count))
testsys.cpu_cluster.cpus0.dcache.WriteReq.hits::cpu_cluster.cpus0.data      1949548                       # number of WriteReq hits (Count)
testsys.cpu_cluster.cpus0.dcache.WriteReq.hits::total      1949548                       # number of WriteReq hits (Count)
testsys.cpu_cluster.cpus0.dcache.WriteReq.misses::cpu_cluster.cpus0.data        68367                       # number of WriteReq misses (Count)
testsys.cpu_cluster.cpus0.dcache.WriteReq.misses::total        68367                       # number of WriteReq misses (Count)
testsys.cpu_cluster.cpus0.dcache.WriteReq.missLatency::cpu_cluster.cpus0.data   2666537500                       # number of WriteReq miss ticks (Tick)
testsys.cpu_cluster.cpus0.dcache.WriteReq.missLatency::total   2666537500                       # number of WriteReq miss ticks (Tick)
testsys.cpu_cluster.cpus0.dcache.WriteReq.accesses::cpu_cluster.cpus0.data      2017915                       # number of WriteReq accesses(hits+misses) (Count)
testsys.cpu_cluster.cpus0.dcache.WriteReq.accesses::total      2017915                       # number of WriteReq accesses(hits+misses) (Count)
testsys.cpu_cluster.cpus0.dcache.WriteReq.missRate::cpu_cluster.cpus0.data     0.033880                       # miss rate for WriteReq accesses (Ratio)
testsys.cpu_cluster.cpus0.dcache.WriteReq.missRate::total     0.033880                       # miss rate for WriteReq accesses (Ratio)
testsys.cpu_cluster.cpus0.dcache.WriteReq.avgMissLatency::cpu_cluster.cpus0.data 39003.283748                       # average WriteReq miss latency ((Tick/Count))
testsys.cpu_cluster.cpus0.dcache.WriteReq.avgMissLatency::total 39003.283748                       # average WriteReq miss latency ((Tick/Count))
testsys.cpu_cluster.cpus0.dcache.WriteReq.mshrMisses::cpu_cluster.cpus0.data        68367                       # number of WriteReq MSHR misses (Count)
testsys.cpu_cluster.cpus0.dcache.WriteReq.mshrMisses::total        68367                       # number of WriteReq MSHR misses (Count)
testsys.cpu_cluster.cpus0.dcache.WriteReq.mshrUncacheable::cpu_cluster.cpus0.data         2589                       # number of WriteReq MSHR uncacheable (Count)
testsys.cpu_cluster.cpus0.dcache.WriteReq.mshrUncacheable::total         2589                       # number of WriteReq MSHR uncacheable (Count)
testsys.cpu_cluster.cpus0.dcache.WriteReq.mshrMissLatency::cpu_cluster.cpus0.data   2649445750                       # number of WriteReq MSHR miss ticks (Tick)
testsys.cpu_cluster.cpus0.dcache.WriteReq.mshrMissLatency::total   2649445750                       # number of WriteReq MSHR miss ticks (Tick)
testsys.cpu_cluster.cpus0.dcache.WriteReq.mshrMissRate::cpu_cluster.cpus0.data     0.033880                       # mshr miss rate for WriteReq accesses (Ratio)
testsys.cpu_cluster.cpus0.dcache.WriteReq.mshrMissRate::total     0.033880                       # mshr miss rate for WriteReq accesses (Ratio)
testsys.cpu_cluster.cpus0.dcache.WriteReq.avgMshrMissLatency::cpu_cluster.cpus0.data 38753.283748                       # average WriteReq mshr miss latency ((Tick/Count))
testsys.cpu_cluster.cpus0.dcache.WriteReq.avgMshrMissLatency::total 38753.283748                       # average WriteReq mshr miss latency ((Tick/Count))
testsys.cpu_cluster.cpus0.dcache.power_state.pwrStateResidencyTicks::UNDEFINED  47191468500                       # Cumulative time (in ticks) in various power states (Tick)
testsys.cpu_cluster.cpus0.dcache.tags.tagsInUse   185.679725                       # Average ticks per tags in use ((Tick/Count))
testsys.cpu_cluster.cpus0.dcache.tags.totalRefs      5737619                       # Total number of references to valid blocks. (Count)
testsys.cpu_cluster.cpus0.dcache.tags.sampledRefs       192362                       # Sample count of references to valid blocks. (Count)
testsys.cpu_cluster.cpus0.dcache.tags.avgRefs    29.827196                       # Average number of references to valid blocks. ((Count/Count))
testsys.cpu_cluster.cpus0.dcache.tags.warmupTick  30063639500                       # The tick when the warmup percentage was hit. (Tick)
testsys.cpu_cluster.cpus0.dcache.tags.occupancies::cpu_cluster.cpus0.data   185.679725                       # Average occupied blocks per tick, per requestor ((Count/Tick))
testsys.cpu_cluster.cpus0.dcache.tags.avgOccs::cpu_cluster.cpus0.data     0.362656                       # Average percentage of cache occupancy ((Ratio/Tick))
testsys.cpu_cluster.cpus0.dcache.tags.avgOccs::total     0.362656                       # Average percentage of cache occupancy ((Ratio/Tick))
testsys.cpu_cluster.cpus0.dcache.tags.occupanciesTaskId::1024          512                       # Occupied blocks per task id (Count)
testsys.cpu_cluster.cpus0.dcache.tags.ageTaskId_1024::0          129                       # Occupied blocks per task id, per block age (Count)
testsys.cpu_cluster.cpus0.dcache.tags.ageTaskId_1024::1          362                       # Occupied blocks per task id, per block age (Count)
testsys.cpu_cluster.cpus0.dcache.tags.ageTaskId_1024::3           21                       # Occupied blocks per task id, per block age (Count)
testsys.cpu_cluster.cpus0.dcache.tags.ratioOccsTaskId::1024            1                       # Ratio of occupied blocks and all blocks, per task id (Ratio)
testsys.cpu_cluster.cpus0.dcache.tags.tagAccesses     11907244                       # Number of tag accesses (Count)
testsys.cpu_cluster.cpus0.dcache.tags.dataAccesses     11907244                       # Number of data accesses (Count)
testsys.cpu_cluster.cpus0.dcache.tags.power_state.pwrStateResidencyTicks::UNDEFINED  47191468500                       # Cumulative time (in ticks) in various power states (Tick)
testsys.cpu_cluster.cpus0.dtb_walker_cache.demandHits::cpu_cluster.cpus0.mmu.dtb_walker        66838                       # number of demand (read+write) hits (Count)
testsys.cpu_cluster.cpus0.dtb_walker_cache.demandHits::total        66838                       # number of demand (read+write) hits (Count)
testsys.cpu_cluster.cpus0.dtb_walker_cache.overallHits::cpu_cluster.cpus0.mmu.dtb_walker        66838                       # number of overall hits (Count)
testsys.cpu_cluster.cpus0.dtb_walker_cache.overallHits::total        66838                       # number of overall hits (Count)
testsys.cpu_cluster.cpus0.dtb_walker_cache.demandMisses::cpu_cluster.cpus0.mmu.dtb_walker        22226                       # number of demand (read+write) misses (Count)
testsys.cpu_cluster.cpus0.dtb_walker_cache.demandMisses::total        22226                       # number of demand (read+write) misses (Count)
testsys.cpu_cluster.cpus0.dtb_walker_cache.overallMisses::cpu_cluster.cpus0.mmu.dtb_walker        22226                       # number of overall misses (Count)
testsys.cpu_cluster.cpus0.dtb_walker_cache.overallMisses::total        22226                       # number of overall misses (Count)
testsys.cpu_cluster.cpus0.dtb_walker_cache.demandMissLatency::cpu_cluster.cpus0.mmu.dtb_walker     72645024                       # number of demand (read+write) miss ticks (Tick)
testsys.cpu_cluster.cpus0.dtb_walker_cache.demandMissLatency::total     72645024                       # number of demand (read+write) miss ticks (Tick)
testsys.cpu_cluster.cpus0.dtb_walker_cache.overallMissLatency::cpu_cluster.cpus0.mmu.dtb_walker     72645024                       # number of overall miss ticks (Tick)
testsys.cpu_cluster.cpus0.dtb_walker_cache.overallMissLatency::total     72645024                       # number of overall miss ticks (Tick)
testsys.cpu_cluster.cpus0.dtb_walker_cache.demandAccesses::cpu_cluster.cpus0.mmu.dtb_walker        89064                       # number of demand (read+write) accesses (Count)
testsys.cpu_cluster.cpus0.dtb_walker_cache.demandAccesses::total        89064                       # number of demand (read+write) accesses (Count)
testsys.cpu_cluster.cpus0.dtb_walker_cache.overallAccesses::cpu_cluster.cpus0.mmu.dtb_walker        89064                       # number of overall (read+write) accesses (Count)
testsys.cpu_cluster.cpus0.dtb_walker_cache.overallAccesses::total        89064                       # number of overall (read+write) accesses (Count)
testsys.cpu_cluster.cpus0.dtb_walker_cache.demandMissRate::cpu_cluster.cpus0.mmu.dtb_walker     0.249551                       # miss rate for demand accesses (Ratio)
testsys.cpu_cluster.cpus0.dtb_walker_cache.demandMissRate::total     0.249551                       # miss rate for demand accesses (Ratio)
testsys.cpu_cluster.cpus0.dtb_walker_cache.overallMissRate::cpu_cluster.cpus0.mmu.dtb_walker     0.249551                       # miss rate for overall accesses (Ratio)
testsys.cpu_cluster.cpus0.dtb_walker_cache.overallMissRate::total     0.249551                       # miss rate for overall accesses (Ratio)
testsys.cpu_cluster.cpus0.dtb_walker_cache.demandAvgMissLatency::cpu_cluster.cpus0.mmu.dtb_walker  3268.470440                       # average overall miss latency ((Cycle/Count))
testsys.cpu_cluster.cpus0.dtb_walker_cache.demandAvgMissLatency::total  3268.470440                       # average overall miss latency ((Cycle/Count))
testsys.cpu_cluster.cpus0.dtb_walker_cache.overallAvgMissLatency::cpu_cluster.cpus0.mmu.dtb_walker  3268.470440                       # average overall miss latency ((Cycle/Count))
testsys.cpu_cluster.cpus0.dtb_walker_cache.overallAvgMissLatency::total  3268.470440                       # average overall miss latency ((Cycle/Count))
testsys.cpu_cluster.cpus0.dtb_walker_cache.blockedCycles::no_mshrs            0                       # number of cycles access was blocked (Cycle)
testsys.cpu_cluster.cpus0.dtb_walker_cache.blockedCycles::no_targets            0                       # number of cycles access was blocked (Cycle)
testsys.cpu_cluster.cpus0.dtb_walker_cache.blockedCauses::no_mshrs            0                       # number of times access was blocked (Count)
testsys.cpu_cluster.cpus0.dtb_walker_cache.blockedCauses::no_targets            0                       # number of times access was blocked (Count)
testsys.cpu_cluster.cpus0.dtb_walker_cache.avgBlocked::no_mshrs          nan                       # average number of cycles each access was blocked ((Cycle/Count))
testsys.cpu_cluster.cpus0.dtb_walker_cache.avgBlocked::no_targets          nan                       # average number of cycles each access was blocked ((Cycle/Count))
testsys.cpu_cluster.cpus0.dtb_walker_cache.demandMshrMisses::cpu_cluster.cpus0.mmu.dtb_walker        22226                       # number of demand (read+write) MSHR misses (Count)
testsys.cpu_cluster.cpus0.dtb_walker_cache.demandMshrMisses::total        22226                       # number of demand (read+write) MSHR misses (Count)
testsys.cpu_cluster.cpus0.dtb_walker_cache.overallMshrMisses::cpu_cluster.cpus0.mmu.dtb_walker        22226                       # number of overall MSHR misses (Count)
testsys.cpu_cluster.cpus0.dtb_walker_cache.overallMshrMisses::total        22226                       # number of overall MSHR misses (Count)
testsys.cpu_cluster.cpus0.dtb_walker_cache.demandMshrMissLatency::cpu_cluster.cpus0.mmu.dtb_walker     50419024                       # number of demand (read+write) MSHR miss ticks (Tick)
testsys.cpu_cluster.cpus0.dtb_walker_cache.demandMshrMissLatency::total     50419024                       # number of demand (read+write) MSHR miss ticks (Tick)
testsys.cpu_cluster.cpus0.dtb_walker_cache.overallMshrMissLatency::cpu_cluster.cpus0.mmu.dtb_walker     50419024                       # number of overall MSHR miss ticks (Tick)
testsys.cpu_cluster.cpus0.dtb_walker_cache.overallMshrMissLatency::total     50419024                       # number of overall MSHR miss ticks (Tick)
testsys.cpu_cluster.cpus0.dtb_walker_cache.demandMshrMissRate::cpu_cluster.cpus0.mmu.dtb_walker     0.249551                       # mshr miss ratio for demand accesses (Ratio)
testsys.cpu_cluster.cpus0.dtb_walker_cache.demandMshrMissRate::total     0.249551                       # mshr miss ratio for demand accesses (Ratio)
testsys.cpu_cluster.cpus0.dtb_walker_cache.overallMshrMissRate::cpu_cluster.cpus0.mmu.dtb_walker     0.249551                       # mshr miss ratio for overall accesses (Ratio)
testsys.cpu_cluster.cpus0.dtb_walker_cache.overallMshrMissRate::total     0.249551                       # mshr miss ratio for overall accesses (Ratio)
testsys.cpu_cluster.cpus0.dtb_walker_cache.demandAvgMshrMissLatency::cpu_cluster.cpus0.mmu.dtb_walker  2268.470440                       # average overall mshr miss latency ((Cycle/Count))
testsys.cpu_cluster.cpus0.dtb_walker_cache.demandAvgMshrMissLatency::total  2268.470440                       # average overall mshr miss latency ((Cycle/Count))
testsys.cpu_cluster.cpus0.dtb_walker_cache.overallAvgMshrMissLatency::cpu_cluster.cpus0.mmu.dtb_walker  2268.470440                       # average overall mshr miss latency ((Cycle/Count))
testsys.cpu_cluster.cpus0.dtb_walker_cache.overallAvgMshrMissLatency::total  2268.470440                       # average overall mshr miss latency ((Cycle/Count))
testsys.cpu_cluster.cpus0.dtb_walker_cache.replacements            0                       # number of replacements (Count)
testsys.cpu_cluster.cpus0.dtb_walker_cache.ReadReq.hits::cpu_cluster.cpus0.mmu.dtb_walker        66838                       # number of ReadReq hits (Count)
testsys.cpu_cluster.cpus0.dtb_walker_cache.ReadReq.hits::total        66838                       # number of ReadReq hits (Count)
testsys.cpu_cluster.cpus0.dtb_walker_cache.ReadReq.misses::cpu_cluster.cpus0.mmu.dtb_walker        22226                       # number of ReadReq misses (Count)
testsys.cpu_cluster.cpus0.dtb_walker_cache.ReadReq.misses::total        22226                       # number of ReadReq misses (Count)
testsys.cpu_cluster.cpus0.dtb_walker_cache.ReadReq.missLatency::cpu_cluster.cpus0.mmu.dtb_walker     72645024                       # number of ReadReq miss ticks (Tick)
testsys.cpu_cluster.cpus0.dtb_walker_cache.ReadReq.missLatency::total     72645024                       # number of ReadReq miss ticks (Tick)
testsys.cpu_cluster.cpus0.dtb_walker_cache.ReadReq.accesses::cpu_cluster.cpus0.mmu.dtb_walker        89064                       # number of ReadReq accesses(hits+misses) (Count)
testsys.cpu_cluster.cpus0.dtb_walker_cache.ReadReq.accesses::total        89064                       # number of ReadReq accesses(hits+misses) (Count)
testsys.cpu_cluster.cpus0.dtb_walker_cache.ReadReq.missRate::cpu_cluster.cpus0.mmu.dtb_walker     0.249551                       # miss rate for ReadReq accesses (Ratio)
testsys.cpu_cluster.cpus0.dtb_walker_cache.ReadReq.missRate::total     0.249551                       # miss rate for ReadReq accesses (Ratio)
testsys.cpu_cluster.cpus0.dtb_walker_cache.ReadReq.avgMissLatency::cpu_cluster.cpus0.mmu.dtb_walker  3268.470440                       # average ReadReq miss latency ((Tick/Count))
testsys.cpu_cluster.cpus0.dtb_walker_cache.ReadReq.avgMissLatency::total  3268.470440                       # average ReadReq miss latency ((Tick/Count))
testsys.cpu_cluster.cpus0.dtb_walker_cache.ReadReq.mshrMisses::cpu_cluster.cpus0.mmu.dtb_walker        22226                       # number of ReadReq MSHR misses (Count)
testsys.cpu_cluster.cpus0.dtb_walker_cache.ReadReq.mshrMisses::total        22226                       # number of ReadReq MSHR misses (Count)
testsys.cpu_cluster.cpus0.dtb_walker_cache.ReadReq.mshrMissLatency::cpu_cluster.cpus0.mmu.dtb_walker     50419024                       # number of ReadReq MSHR miss ticks (Tick)
testsys.cpu_cluster.cpus0.dtb_walker_cache.ReadReq.mshrMissLatency::total     50419024                       # number of ReadReq MSHR miss ticks (Tick)
testsys.cpu_cluster.cpus0.dtb_walker_cache.ReadReq.mshrMissRate::cpu_cluster.cpus0.mmu.dtb_walker     0.249551                       # mshr miss rate for ReadReq accesses (Ratio)
testsys.cpu_cluster.cpus0.dtb_walker_cache.ReadReq.mshrMissRate::total     0.249551                       # mshr miss rate for ReadReq accesses (Ratio)
testsys.cpu_cluster.cpus0.dtb_walker_cache.ReadReq.avgMshrMissLatency::cpu_cluster.cpus0.mmu.dtb_walker  2268.470440                       # average ReadReq mshr miss latency ((Tick/Count))
testsys.cpu_cluster.cpus0.dtb_walker_cache.ReadReq.avgMshrMissLatency::total  2268.470440                       # average ReadReq mshr miss latency ((Tick/Count))
testsys.cpu_cluster.cpus0.dtb_walker_cache.power_state.pwrStateResidencyTicks::UNDEFINED  47191468500                       # Cumulative time (in ticks) in various power states (Tick)
testsys.cpu_cluster.cpus0.dtb_walker_cache.tags.tagsInUse     3.294034                       # Average ticks per tags in use ((Tick/Count))
testsys.cpu_cluster.cpus0.dtb_walker_cache.tags.totalRefs        89064                       # Total number of references to valid blocks. (Count)
testsys.cpu_cluster.cpus0.dtb_walker_cache.tags.sampledRefs        22226                       # Sample count of references to valid blocks. (Count)
testsys.cpu_cluster.cpus0.dtb_walker_cache.tags.avgRefs     4.007199                       # Average number of references to valid blocks. ((Count/Count))
testsys.cpu_cluster.cpus0.dtb_walker_cache.tags.warmupTick  30063469500                       # The tick when the warmup percentage was hit. (Tick)
testsys.cpu_cluster.cpus0.dtb_walker_cache.tags.occupancies::cpu_cluster.cpus0.mmu.dtb_walker     3.294034                       # Average occupied blocks per tick, per requestor ((Count/Tick))
testsys.cpu_cluster.cpus0.dtb_walker_cache.tags.avgOccs::cpu_cluster.cpus0.mmu.dtb_walker     0.205877                       # Average percentage of cache occupancy ((Ratio/Tick))
testsys.cpu_cluster.cpus0.dtb_walker_cache.tags.avgOccs::total     0.205877                       # Average percentage of cache occupancy ((Ratio/Tick))
testsys.cpu_cluster.cpus0.dtb_walker_cache.tags.occupanciesTaskId::1023           12                       # Occupied blocks per task id (Count)
testsys.cpu_cluster.cpus0.dtb_walker_cache.tags.ageTaskId_1023::0            1                       # Occupied blocks per task id, per block age (Count)
testsys.cpu_cluster.cpus0.dtb_walker_cache.tags.ageTaskId_1023::3            2                       # Occupied blocks per task id, per block age (Count)
testsys.cpu_cluster.cpus0.dtb_walker_cache.tags.ageTaskId_1023::4            9                       # Occupied blocks per task id, per block age (Count)
testsys.cpu_cluster.cpus0.dtb_walker_cache.tags.ratioOccsTaskId::1023     0.750000                       # Ratio of occupied blocks and all blocks, per task id (Ratio)
testsys.cpu_cluster.cpus0.dtb_walker_cache.tags.tagAccesses       734738                       # Number of tag accesses (Count)
testsys.cpu_cluster.cpus0.dtb_walker_cache.tags.dataAccesses       734738                       # Number of data accesses (Count)
testsys.cpu_cluster.cpus0.dtb_walker_cache.tags.power_state.pwrStateResidencyTicks::UNDEFINED  47191468500                       # Cumulative time (in ticks) in various power states (Tick)
testsys.cpu_cluster.cpus0.exec_context.thread_0.numInsts     30596000                       # Number of instructions committed (Count)
testsys.cpu_cluster.cpus0.exec_context.thread_0.numOps     32545858                       # Number of ops (including micro ops) committed (Count)
testsys.cpu_cluster.cpus0.exec_context.thread_0.numIntAluAccesses     28153472                       # Number of integer alu accesses (Count)
testsys.cpu_cluster.cpus0.exec_context.thread_0.numFpAluAccesses            0                       # Number of float alu accesses (Count)
testsys.cpu_cluster.cpus0.exec_context.thread_0.numVecAluAccesses            0                       # Number of vector alu accesses (Count)
testsys.cpu_cluster.cpus0.exec_context.thread_0.numCallsReturns      2051249                       # Number of times a function call or return occured (Count)
testsys.cpu_cluster.cpus0.exec_context.thread_0.numCondCtrlInsts      4171171                       # Number of instructions that are conditional controls (Count)
testsys.cpu_cluster.cpus0.exec_context.thread_0.numIntInsts     28153472                       # Number of integer instructions (Count)
testsys.cpu_cluster.cpus0.exec_context.thread_0.numFpInsts            0                       # Number of float instructions (Count)
testsys.cpu_cluster.cpus0.exec_context.thread_0.numVecInsts            0                       # Number of vector instructions (Count)
testsys.cpu_cluster.cpus0.exec_context.thread_0.numIntRegReads     41822031                       # Number of times the integer registers were read (Count)
testsys.cpu_cluster.cpus0.exec_context.thread_0.numIntRegWrites     24507820                       # Number of times the integer registers were written (Count)
testsys.cpu_cluster.cpus0.exec_context.thread_0.numFpRegReads            0                       # Number of times the floating registers were read (Count)
testsys.cpu_cluster.cpus0.exec_context.thread_0.numFpRegWrites            0                       # Number of times the floating registers were written (Count)
testsys.cpu_cluster.cpus0.exec_context.thread_0.numVecRegReads            0                       # Number of times the vector registers were read (Count)
testsys.cpu_cluster.cpus0.exec_context.thread_0.numVecRegWrites            0                       # Number of times the vector registers were written (Count)
testsys.cpu_cluster.cpus0.exec_context.thread_0.numVecPredRegReads            0                       # Number of times the predicate registers were read (Count)
testsys.cpu_cluster.cpus0.exec_context.thread_0.numVecPredRegWrites            0                       # Number of times the predicate registers were written (Count)
testsys.cpu_cluster.cpus0.exec_context.thread_0.numCCRegReads     13977759                       # Number of times the CC registers were read (Count)
testsys.cpu_cluster.cpus0.exec_context.thread_0.numCCRegWrites     12769689                       # Number of times the CC registers were written (Count)
testsys.cpu_cluster.cpus0.exec_context.thread_0.numMemRefs      5838317                       # Number of memory refs (Count)
testsys.cpu_cluster.cpus0.exec_context.thread_0.numLoadInsts      3647280                       # Number of load instructions (Count)
testsys.cpu_cluster.cpus0.exec_context.thread_0.numStoreInsts      2191037                       # Number of store instructions (Count)
testsys.cpu_cluster.cpus0.exec_context.thread_0.numIdleCycles            0                       # Number of idle cycles (Cycle)
testsys.cpu_cluster.cpus0.exec_context.thread_0.numBusyCycles    188765874                       # Number of busy cycles (Cycle)
testsys.cpu_cluster.cpus0.exec_context.thread_0.notIdleFraction            1                       # Percentage of non-idle cycles (Ratio)
testsys.cpu_cluster.cpus0.exec_context.thread_0.idleFraction            0                       # Percentage of idle cycles (Ratio)
testsys.cpu_cluster.cpus0.exec_context.thread_0.numBranches      6525790                       # Number of branches fetched (Count)
testsys.cpu_cluster.cpus0.exec_context.thread_0.statExecutedInstType::No_OpClass            0      0.00%      0.00% # Class of executed instruction. (Count)
testsys.cpu_cluster.cpus0.exec_context.thread_0.statExecutedInstType::IntAlu     26702715     82.05%     82.05% # Class of executed instruction. (Count)
testsys.cpu_cluster.cpus0.exec_context.thread_0.statExecutedInstType::IntMult         4826      0.01%     82.06% # Class of executed instruction. (Count)
testsys.cpu_cluster.cpus0.exec_context.thread_0.statExecutedInstType::IntDiv            0      0.00%     82.06% # Class of executed instruction. (Count)
testsys.cpu_cluster.cpus0.exec_context.thread_0.statExecutedInstType::FloatAdd            0      0.00%     82.06% # Class of executed instruction. (Count)
testsys.cpu_cluster.cpus0.exec_context.thread_0.statExecutedInstType::FloatCmp            0      0.00%     82.06% # Class of executed instruction. (Count)
testsys.cpu_cluster.cpus0.exec_context.thread_0.statExecutedInstType::FloatCvt            0      0.00%     82.06% # Class of executed instruction. (Count)
testsys.cpu_cluster.cpus0.exec_context.thread_0.statExecutedInstType::FloatMult            0      0.00%     82.06% # Class of executed instruction. (Count)
testsys.cpu_cluster.cpus0.exec_context.thread_0.statExecutedInstType::FloatMultAcc            0      0.00%     82.06% # Class of executed instruction. (Count)
testsys.cpu_cluster.cpus0.exec_context.thread_0.statExecutedInstType::FloatDiv            0      0.00%     82.06% # Class of executed instruction. (Count)
testsys.cpu_cluster.cpus0.exec_context.thread_0.statExecutedInstType::FloatMisc            0      0.00%     82.06% # Class of executed instruction. (Count)
testsys.cpu_cluster.cpus0.exec_context.thread_0.statExecutedInstType::FloatSqrt            0      0.00%     82.06% # Class of executed instruction. (Count)
testsys.cpu_cluster.cpus0.exec_context.thread_0.statExecutedInstType::SimdAdd            0      0.00%     82.06% # Class of executed instruction. (Count)
testsys.cpu_cluster.cpus0.exec_context.thread_0.statExecutedInstType::SimdAddAcc            0      0.00%     82.06% # Class of executed instruction. (Count)
testsys.cpu_cluster.cpus0.exec_context.thread_0.statExecutedInstType::SimdAlu            0      0.00%     82.06% # Class of executed instruction. (Count)
testsys.cpu_cluster.cpus0.exec_context.thread_0.statExecutedInstType::SimdCmp            0      0.00%     82.06% # Class of executed instruction. (Count)
testsys.cpu_cluster.cpus0.exec_context.thread_0.statExecutedInstType::SimdCvt            0      0.00%     82.06% # Class of executed instruction. (Count)
testsys.cpu_cluster.cpus0.exec_context.thread_0.statExecutedInstType::SimdMisc            0      0.00%     82.06% # Class of executed instruction. (Count)
testsys.cpu_cluster.cpus0.exec_context.thread_0.statExecutedInstType::SimdMult            0      0.00%     82.06% # Class of executed instruction. (Count)
testsys.cpu_cluster.cpus0.exec_context.thread_0.statExecutedInstType::SimdMultAcc            0      0.00%     82.06% # Class of executed instruction. (Count)
testsys.cpu_cluster.cpus0.exec_context.thread_0.statExecutedInstType::SimdShift            0      0.00%     82.06% # Class of executed instruction. (Count)
testsys.cpu_cluster.cpus0.exec_context.thread_0.statExecutedInstType::SimdShiftAcc            0      0.00%     82.06% # Class of executed instruction. (Count)
testsys.cpu_cluster.cpus0.exec_context.thread_0.statExecutedInstType::SimdDiv            0      0.00%     82.06% # Class of executed instruction. (Count)
testsys.cpu_cluster.cpus0.exec_context.thread_0.statExecutedInstType::SimdSqrt            0      0.00%     82.06% # Class of executed instruction. (Count)
testsys.cpu_cluster.cpus0.exec_context.thread_0.statExecutedInstType::SimdFloatAdd            0      0.00%     82.06% # Class of executed instruction. (Count)
testsys.cpu_cluster.cpus0.exec_context.thread_0.statExecutedInstType::SimdFloatAlu            0      0.00%     82.06% # Class of executed instruction. (Count)
testsys.cpu_cluster.cpus0.exec_context.thread_0.statExecutedInstType::SimdFloatCmp            0      0.00%     82.06% # Class of executed instruction. (Count)
testsys.cpu_cluster.cpus0.exec_context.thread_0.statExecutedInstType::SimdFloatCvt            0      0.00%     82.06% # Class of executed instruction. (Count)
testsys.cpu_cluster.cpus0.exec_context.thread_0.statExecutedInstType::SimdFloatDiv            0      0.00%     82.06% # Class of executed instruction. (Count)
testsys.cpu_cluster.cpus0.exec_context.thread_0.statExecutedInstType::SimdFloatMisc            0      0.00%     82.06% # Class of executed instruction. (Count)
testsys.cpu_cluster.cpus0.exec_context.thread_0.statExecutedInstType::SimdFloatMult            0      0.00%     82.06% # Class of executed instruction. (Count)
testsys.cpu_cluster.cpus0.exec_context.thread_0.statExecutedInstType::SimdFloatMultAcc            0      0.00%     82.06% # Class of executed instruction. (Count)
testsys.cpu_cluster.cpus0.exec_context.thread_0.statExecutedInstType::SimdFloatSqrt            0      0.00%     82.06% # Class of executed instruction. (Count)
testsys.cpu_cluster.cpus0.exec_context.thread_0.statExecutedInstType::SimdReduceAdd            0      0.00%     82.06% # Class of executed instruction. (Count)
testsys.cpu_cluster.cpus0.exec_context.thread_0.statExecutedInstType::SimdReduceAlu            0      0.00%     82.06% # Class of executed instruction. (Count)
testsys.cpu_cluster.cpus0.exec_context.thread_0.statExecutedInstType::SimdReduceCmp            0      0.00%     82.06% # Class of executed instruction. (Count)
testsys.cpu_cluster.cpus0.exec_context.thread_0.statExecutedInstType::SimdFloatReduceAdd            0      0.00%     82.06% # Class of executed instruction. (Count)
testsys.cpu_cluster.cpus0.exec_context.thread_0.statExecutedInstType::SimdFloatReduceCmp            0      0.00%     82.06% # Class of executed instruction. (Count)
testsys.cpu_cluster.cpus0.exec_context.thread_0.statExecutedInstType::SimdAes            0      0.00%     82.06% # Class of executed instruction. (Count)
testsys.cpu_cluster.cpus0.exec_context.thread_0.statExecutedInstType::SimdAesMix            0      0.00%     82.06% # Class of executed instruction. (Count)
testsys.cpu_cluster.cpus0.exec_context.thread_0.statExecutedInstType::SimdSha1Hash            0      0.00%     82.06% # Class of executed instruction. (Count)
testsys.cpu_cluster.cpus0.exec_context.thread_0.statExecutedInstType::SimdSha1Hash2            0      0.00%     82.06% # Class of executed instruction. (Count)
testsys.cpu_cluster.cpus0.exec_context.thread_0.statExecutedInstType::SimdSha256Hash            0      0.00%     82.06% # Class of executed instruction. (Count)
testsys.cpu_cluster.cpus0.exec_context.thread_0.statExecutedInstType::SimdSha256Hash2            0      0.00%     82.06% # Class of executed instruction. (Count)
testsys.cpu_cluster.cpus0.exec_context.thread_0.statExecutedInstType::SimdShaSigma2            0      0.00%     82.06% # Class of executed instruction. (Count)
testsys.cpu_cluster.cpus0.exec_context.thread_0.statExecutedInstType::SimdShaSigma3            0      0.00%     82.06% # Class of executed instruction. (Count)
testsys.cpu_cluster.cpus0.exec_context.thread_0.statExecutedInstType::SimdPredAlu            0      0.00%     82.06% # Class of executed instruction. (Count)
testsys.cpu_cluster.cpus0.exec_context.thread_0.statExecutedInstType::MemRead      3647280     11.21%     93.27% # Class of executed instruction. (Count)
testsys.cpu_cluster.cpus0.exec_context.thread_0.statExecutedInstType::MemWrite      2191037      6.73%    100.00% # Class of executed instruction. (Count)
testsys.cpu_cluster.cpus0.exec_context.thread_0.statExecutedInstType::FloatMemRead            0      0.00%    100.00% # Class of executed instruction. (Count)
testsys.cpu_cluster.cpus0.exec_context.thread_0.statExecutedInstType::FloatMemWrite            0      0.00%    100.00% # Class of executed instruction. (Count)
testsys.cpu_cluster.cpus0.exec_context.thread_0.statExecutedInstType::IprAccess            0      0.00%    100.00% # Class of executed instruction. (Count)
testsys.cpu_cluster.cpus0.exec_context.thread_0.statExecutedInstType::InstPrefetch            0      0.00%    100.00% # Class of executed instruction. (Count)
testsys.cpu_cluster.cpus0.exec_context.thread_0.statExecutedInstType::total     32545858                       # Class of executed instruction. (Count)
testsys.cpu_cluster.cpus0.icache.demandHits::cpu_cluster.cpus0.inst     30113608                       # number of demand (read+write) hits (Count)
testsys.cpu_cluster.cpus0.icache.demandHits::total     30113608                       # number of demand (read+write) hits (Count)
testsys.cpu_cluster.cpus0.icache.overallHits::cpu_cluster.cpus0.inst     30113608                       # number of overall hits (Count)
testsys.cpu_cluster.cpus0.icache.overallHits::total     30113608                       # number of overall hits (Count)
testsys.cpu_cluster.cpus0.icache.demandMisses::cpu_cluster.cpus0.inst          814                       # number of demand (read+write) misses (Count)
testsys.cpu_cluster.cpus0.icache.demandMisses::total          814                       # number of demand (read+write) misses (Count)
testsys.cpu_cluster.cpus0.icache.overallMisses::cpu_cluster.cpus0.inst          814                       # number of overall misses (Count)
testsys.cpu_cluster.cpus0.icache.overallMisses::total          814                       # number of overall misses (Count)
testsys.cpu_cluster.cpus0.icache.demandMissLatency::cpu_cluster.cpus0.inst     46111250                       # number of demand (read+write) miss ticks (Tick)
testsys.cpu_cluster.cpus0.icache.demandMissLatency::total     46111250                       # number of demand (read+write) miss ticks (Tick)
testsys.cpu_cluster.cpus0.icache.overallMissLatency::cpu_cluster.cpus0.inst     46111250                       # number of overall miss ticks (Tick)
testsys.cpu_cluster.cpus0.icache.overallMissLatency::total     46111250                       # number of overall miss ticks (Tick)
testsys.cpu_cluster.cpus0.icache.demandAccesses::cpu_cluster.cpus0.inst     30114422                       # number of demand (read+write) accesses (Count)
testsys.cpu_cluster.cpus0.icache.demandAccesses::total     30114422                       # number of demand (read+write) accesses (Count)
testsys.cpu_cluster.cpus0.icache.overallAccesses::cpu_cluster.cpus0.inst     30114422                       # number of overall (read+write) accesses (Count)
testsys.cpu_cluster.cpus0.icache.overallAccesses::total     30114422                       # number of overall (read+write) accesses (Count)
testsys.cpu_cluster.cpus0.icache.demandMissRate::cpu_cluster.cpus0.inst     0.000027                       # miss rate for demand accesses (Ratio)
testsys.cpu_cluster.cpus0.icache.demandMissRate::total     0.000027                       # miss rate for demand accesses (Ratio)
testsys.cpu_cluster.cpus0.icache.overallMissRate::cpu_cluster.cpus0.inst     0.000027                       # miss rate for overall accesses (Ratio)
testsys.cpu_cluster.cpus0.icache.overallMissRate::total     0.000027                       # miss rate for overall accesses (Ratio)
testsys.cpu_cluster.cpus0.icache.demandAvgMissLatency::cpu_cluster.cpus0.inst 56647.727273                       # average overall miss latency ((Cycle/Count))
testsys.cpu_cluster.cpus0.icache.demandAvgMissLatency::total 56647.727273                       # average overall miss latency ((Cycle/Count))
testsys.cpu_cluster.cpus0.icache.overallAvgMissLatency::cpu_cluster.cpus0.inst 56647.727273                       # average overall miss latency ((Cycle/Count))
testsys.cpu_cluster.cpus0.icache.overallAvgMissLatency::total 56647.727273                       # average overall miss latency ((Cycle/Count))
testsys.cpu_cluster.cpus0.icache.blockedCycles::no_mshrs            0                       # number of cycles access was blocked (Cycle)
testsys.cpu_cluster.cpus0.icache.blockedCycles::no_targets            0                       # number of cycles access was blocked (Cycle)
testsys.cpu_cluster.cpus0.icache.blockedCauses::no_mshrs            0                       # number of times access was blocked (Count)
testsys.cpu_cluster.cpus0.icache.blockedCauses::no_targets            0                       # number of times access was blocked (Count)
testsys.cpu_cluster.cpus0.icache.avgBlocked::no_mshrs          nan                       # average number of cycles each access was blocked ((Cycle/Count))
testsys.cpu_cluster.cpus0.icache.avgBlocked::no_targets          nan                       # average number of cycles each access was blocked ((Cycle/Count))
testsys.cpu_cluster.cpus0.icache.writebacks::writebacks          265                       # number of writebacks (Count)
testsys.cpu_cluster.cpus0.icache.writebacks::total          265                       # number of writebacks (Count)
testsys.cpu_cluster.cpus0.icache.demandMshrMisses::cpu_cluster.cpus0.inst          814                       # number of demand (read+write) MSHR misses (Count)
testsys.cpu_cluster.cpus0.icache.demandMshrMisses::total          814                       # number of demand (read+write) MSHR misses (Count)
testsys.cpu_cluster.cpus0.icache.overallMshrMisses::cpu_cluster.cpus0.inst          814                       # number of overall MSHR misses (Count)
testsys.cpu_cluster.cpus0.icache.overallMshrMisses::total          814                       # number of overall MSHR misses (Count)
testsys.cpu_cluster.cpus0.icache.overallMshrUncacheable::cpu_cluster.cpus0.inst       481579                       # number of overall MSHR uncacheable misses (Count)
testsys.cpu_cluster.cpus0.icache.overallMshrUncacheable::total       481579                       # number of overall MSHR uncacheable misses (Count)
testsys.cpu_cluster.cpus0.icache.demandMshrMissLatency::cpu_cluster.cpus0.inst     45907750                       # number of demand (read+write) MSHR miss ticks (Tick)
testsys.cpu_cluster.cpus0.icache.demandMshrMissLatency::total     45907750                       # number of demand (read+write) MSHR miss ticks (Tick)
testsys.cpu_cluster.cpus0.icache.overallMshrMissLatency::cpu_cluster.cpus0.inst     45907750                       # number of overall MSHR miss ticks (Tick)
testsys.cpu_cluster.cpus0.icache.overallMshrMissLatency::total     45907750                       # number of overall MSHR miss ticks (Tick)
testsys.cpu_cluster.cpus0.icache.overallMshrUncacheableLatency::cpu_cluster.cpus0.inst  28074075250                       # number of overall MSHR uncacheable ticks (Tick)
testsys.cpu_cluster.cpus0.icache.overallMshrUncacheableLatency::total  28074075250                       # number of overall MSHR uncacheable ticks (Tick)
testsys.cpu_cluster.cpus0.icache.demandMshrMissRate::cpu_cluster.cpus0.inst     0.000027                       # mshr miss ratio for demand accesses (Ratio)
testsys.cpu_cluster.cpus0.icache.demandMshrMissRate::total     0.000027                       # mshr miss ratio for demand accesses (Ratio)
testsys.cpu_cluster.cpus0.icache.overallMshrMissRate::cpu_cluster.cpus0.inst     0.000027                       # mshr miss ratio for overall accesses (Ratio)
testsys.cpu_cluster.cpus0.icache.overallMshrMissRate::total     0.000027                       # mshr miss ratio for overall accesses (Ratio)
testsys.cpu_cluster.cpus0.icache.demandAvgMshrMissLatency::cpu_cluster.cpus0.inst 56397.727273                       # average overall mshr miss latency ((Cycle/Count))
testsys.cpu_cluster.cpus0.icache.demandAvgMshrMissLatency::total 56397.727273                       # average overall mshr miss latency ((Cycle/Count))
testsys.cpu_cluster.cpus0.icache.overallAvgMshrMissLatency::cpu_cluster.cpus0.inst 56397.727273                       # average overall mshr miss latency ((Cycle/Count))
testsys.cpu_cluster.cpus0.icache.overallAvgMshrMissLatency::total 56397.727273                       # average overall mshr miss latency ((Cycle/Count))
testsys.cpu_cluster.cpus0.icache.overallAvgMshrUncacheableLatency::cpu_cluster.cpus0.inst 58295.887591                       # average overall mshr uncacheable latency ((Cycle/Count))
testsys.cpu_cluster.cpus0.icache.overallAvgMshrUncacheableLatency::total 58295.887591                       # average overall mshr uncacheable latency ((Cycle/Count))
testsys.cpu_cluster.cpus0.icache.replacements          265                       # number of replacements (Count)
testsys.cpu_cluster.cpus0.icache.ReadReq.hits::cpu_cluster.cpus0.inst     30113608                       # number of ReadReq hits (Count)
testsys.cpu_cluster.cpus0.icache.ReadReq.hits::total     30113608                       # number of ReadReq hits (Count)
testsys.cpu_cluster.cpus0.icache.ReadReq.misses::cpu_cluster.cpus0.inst          814                       # number of ReadReq misses (Count)
testsys.cpu_cluster.cpus0.icache.ReadReq.misses::total          814                       # number of ReadReq misses (Count)
testsys.cpu_cluster.cpus0.icache.ReadReq.missLatency::cpu_cluster.cpus0.inst     46111250                       # number of ReadReq miss ticks (Tick)
testsys.cpu_cluster.cpus0.icache.ReadReq.missLatency::total     46111250                       # number of ReadReq miss ticks (Tick)
testsys.cpu_cluster.cpus0.icache.ReadReq.accesses::cpu_cluster.cpus0.inst     30114422                       # number of ReadReq accesses(hits+misses) (Count)
testsys.cpu_cluster.cpus0.icache.ReadReq.accesses::total     30114422                       # number of ReadReq accesses(hits+misses) (Count)
testsys.cpu_cluster.cpus0.icache.ReadReq.missRate::cpu_cluster.cpus0.inst     0.000027                       # miss rate for ReadReq accesses (Ratio)
testsys.cpu_cluster.cpus0.icache.ReadReq.missRate::total     0.000027                       # miss rate for ReadReq accesses (Ratio)
testsys.cpu_cluster.cpus0.icache.ReadReq.avgMissLatency::cpu_cluster.cpus0.inst 56647.727273                       # average ReadReq miss latency ((Tick/Count))
testsys.cpu_cluster.cpus0.icache.ReadReq.avgMissLatency::total 56647.727273                       # average ReadReq miss latency ((Tick/Count))
testsys.cpu_cluster.cpus0.icache.ReadReq.mshrMisses::cpu_cluster.cpus0.inst          814                       # number of ReadReq MSHR misses (Count)
testsys.cpu_cluster.cpus0.icache.ReadReq.mshrMisses::total          814                       # number of ReadReq MSHR misses (Count)
testsys.cpu_cluster.cpus0.icache.ReadReq.mshrUncacheable::cpu_cluster.cpus0.inst       481579                       # number of ReadReq MSHR uncacheable (Count)
testsys.cpu_cluster.cpus0.icache.ReadReq.mshrUncacheable::total       481579                       # number of ReadReq MSHR uncacheable (Count)
testsys.cpu_cluster.cpus0.icache.ReadReq.mshrMissLatency::cpu_cluster.cpus0.inst     45907750                       # number of ReadReq MSHR miss ticks (Tick)
testsys.cpu_cluster.cpus0.icache.ReadReq.mshrMissLatency::total     45907750                       # number of ReadReq MSHR miss ticks (Tick)
testsys.cpu_cluster.cpus0.icache.ReadReq.mshrUncacheableLatency::cpu_cluster.cpus0.inst  28074075250                       # number of ReadReq MSHR uncacheable ticks (Tick)
testsys.cpu_cluster.cpus0.icache.ReadReq.mshrUncacheableLatency::total  28074075250                       # number of ReadReq MSHR uncacheable ticks (Tick)
testsys.cpu_cluster.cpus0.icache.ReadReq.mshrMissRate::cpu_cluster.cpus0.inst     0.000027                       # mshr miss rate for ReadReq accesses (Ratio)
testsys.cpu_cluster.cpus0.icache.ReadReq.mshrMissRate::total     0.000027                       # mshr miss rate for ReadReq accesses (Ratio)
testsys.cpu_cluster.cpus0.icache.ReadReq.avgMshrMissLatency::cpu_cluster.cpus0.inst 56397.727273                       # average ReadReq mshr miss latency ((Tick/Count))
testsys.cpu_cluster.cpus0.icache.ReadReq.avgMshrMissLatency::total 56397.727273                       # average ReadReq mshr miss latency ((Tick/Count))
testsys.cpu_cluster.cpus0.icache.ReadReq.avgMshrUncacheableLatency::cpu_cluster.cpus0.inst 58295.887591                       # average ReadReq mshr uncacheable latency ((Tick/Count))
testsys.cpu_cluster.cpus0.icache.ReadReq.avgMshrUncacheableLatency::total 58295.887591                       # average ReadReq mshr uncacheable latency ((Tick/Count))
testsys.cpu_cluster.cpus0.icache.power_state.pwrStateResidencyTicks::UNDEFINED  47191468500                       # Cumulative time (in ticks) in various power states (Tick)
testsys.cpu_cluster.cpus0.icache.tags.tagsInUse   111.440565                       # Average ticks per tags in use ((Tick/Count))
testsys.cpu_cluster.cpus0.icache.tags.totalRefs     30114422                       # Total number of references to valid blocks. (Count)
testsys.cpu_cluster.cpus0.icache.tags.sampledRefs          814                       # Sample count of references to valid blocks. (Count)
testsys.cpu_cluster.cpus0.icache.tags.avgRefs 36995.604423                       # Average number of references to valid blocks. ((Count/Count))
testsys.cpu_cluster.cpus0.icache.tags.warmupTick  30063301500                       # The tick when the warmup percentage was hit. (Tick)
testsys.cpu_cluster.cpus0.icache.tags.occupancies::cpu_cluster.cpus0.inst   111.440565                       # Average occupied blocks per tick, per requestor ((Count/Tick))
testsys.cpu_cluster.cpus0.icache.tags.avgOccs::cpu_cluster.cpus0.inst     0.145105                       # Average percentage of cache occupancy ((Ratio/Tick))
testsys.cpu_cluster.cpus0.icache.tags.avgOccs::total     0.145105                       # Average percentage of cache occupancy ((Ratio/Tick))
testsys.cpu_cluster.cpus0.icache.tags.occupanciesTaskId::1024          549                       # Occupied blocks per task id (Count)
testsys.cpu_cluster.cpus0.icache.tags.ageTaskId_1024::3          261                       # Occupied blocks per task id, per block age (Count)
testsys.cpu_cluster.cpus0.icache.tags.ageTaskId_1024::4          288                       # Occupied blocks per task id, per block age (Count)
testsys.cpu_cluster.cpus0.icache.tags.ratioOccsTaskId::1024     0.714844                       # Ratio of occupied blocks and all blocks, per task id (Ratio)
testsys.cpu_cluster.cpus0.icache.tags.tagAccesses     90344080                       # Number of tag accesses (Count)
testsys.cpu_cluster.cpus0.icache.tags.dataAccesses     90344080                       # Number of data accesses (Count)
testsys.cpu_cluster.cpus0.icache.tags.power_state.pwrStateResidencyTicks::UNDEFINED  47191468500                       # Cumulative time (in ticks) in various power states (Tick)
testsys.cpu_cluster.cpus0.itb_walker_cache.demandHits::cpu_cluster.cpus0.mmu.itb_walker           29                       # number of demand (read+write) hits (Count)
testsys.cpu_cluster.cpus0.itb_walker_cache.demandHits::total           29                       # number of demand (read+write) hits (Count)
testsys.cpu_cluster.cpus0.itb_walker_cache.overallHits::cpu_cluster.cpus0.mmu.itb_walker           29                       # number of overall hits (Count)
testsys.cpu_cluster.cpus0.itb_walker_cache.overallHits::total           29                       # number of overall hits (Count)
testsys.cpu_cluster.cpus0.itb_walker_cache.demandMisses::cpu_cluster.cpus0.mmu.itb_walker            7                       # number of demand (read+write) misses (Count)
testsys.cpu_cluster.cpus0.itb_walker_cache.demandMisses::total            7                       # number of demand (read+write) misses (Count)
testsys.cpu_cluster.cpus0.itb_walker_cache.overallMisses::cpu_cluster.cpus0.mmu.itb_walker            7                       # number of overall misses (Count)
testsys.cpu_cluster.cpus0.itb_walker_cache.overallMisses::total            7                       # number of overall misses (Count)
testsys.cpu_cluster.cpus0.itb_walker_cache.demandMissLatency::cpu_cluster.cpus0.mmu.itb_walker       452993                       # number of demand (read+write) miss ticks (Tick)
testsys.cpu_cluster.cpus0.itb_walker_cache.demandMissLatency::total       452993                       # number of demand (read+write) miss ticks (Tick)
testsys.cpu_cluster.cpus0.itb_walker_cache.overallMissLatency::cpu_cluster.cpus0.mmu.itb_walker       452993                       # number of overall miss ticks (Tick)
testsys.cpu_cluster.cpus0.itb_walker_cache.overallMissLatency::total       452993                       # number of overall miss ticks (Tick)
testsys.cpu_cluster.cpus0.itb_walker_cache.demandAccesses::cpu_cluster.cpus0.mmu.itb_walker           36                       # number of demand (read+write) accesses (Count)
testsys.cpu_cluster.cpus0.itb_walker_cache.demandAccesses::total           36                       # number of demand (read+write) accesses (Count)
testsys.cpu_cluster.cpus0.itb_walker_cache.overallAccesses::cpu_cluster.cpus0.mmu.itb_walker           36                       # number of overall (read+write) accesses (Count)
testsys.cpu_cluster.cpus0.itb_walker_cache.overallAccesses::total           36                       # number of overall (read+write) accesses (Count)
testsys.cpu_cluster.cpus0.itb_walker_cache.demandMissRate::cpu_cluster.cpus0.mmu.itb_walker     0.194444                       # miss rate for demand accesses (Ratio)
testsys.cpu_cluster.cpus0.itb_walker_cache.demandMissRate::total     0.194444                       # miss rate for demand accesses (Ratio)
testsys.cpu_cluster.cpus0.itb_walker_cache.overallMissRate::cpu_cluster.cpus0.mmu.itb_walker     0.194444                       # miss rate for overall accesses (Ratio)
testsys.cpu_cluster.cpus0.itb_walker_cache.overallMissRate::total     0.194444                       # miss rate for overall accesses (Ratio)
testsys.cpu_cluster.cpus0.itb_walker_cache.demandAvgMissLatency::cpu_cluster.cpus0.mmu.itb_walker 64713.285714                       # average overall miss latency ((Cycle/Count))
testsys.cpu_cluster.cpus0.itb_walker_cache.demandAvgMissLatency::total 64713.285714                       # average overall miss latency ((Cycle/Count))
testsys.cpu_cluster.cpus0.itb_walker_cache.overallAvgMissLatency::cpu_cluster.cpus0.mmu.itb_walker 64713.285714                       # average overall miss latency ((Cycle/Count))
testsys.cpu_cluster.cpus0.itb_walker_cache.overallAvgMissLatency::total 64713.285714                       # average overall miss latency ((Cycle/Count))
testsys.cpu_cluster.cpus0.itb_walker_cache.blockedCycles::no_mshrs            0                       # number of cycles access was blocked (Cycle)
testsys.cpu_cluster.cpus0.itb_walker_cache.blockedCycles::no_targets            0                       # number of cycles access was blocked (Cycle)
testsys.cpu_cluster.cpus0.itb_walker_cache.blockedCauses::no_mshrs            0                       # number of times access was blocked (Count)
testsys.cpu_cluster.cpus0.itb_walker_cache.blockedCauses::no_targets            0                       # number of times access was blocked (Count)
testsys.cpu_cluster.cpus0.itb_walker_cache.avgBlocked::no_mshrs          nan                       # average number of cycles each access was blocked ((Cycle/Count))
testsys.cpu_cluster.cpus0.itb_walker_cache.avgBlocked::no_targets          nan                       # average number of cycles each access was blocked ((Cycle/Count))
testsys.cpu_cluster.cpus0.itb_walker_cache.demandMshrMisses::cpu_cluster.cpus0.mmu.itb_walker            7                       # number of demand (read+write) MSHR misses (Count)
testsys.cpu_cluster.cpus0.itb_walker_cache.demandMshrMisses::total            7                       # number of demand (read+write) MSHR misses (Count)
testsys.cpu_cluster.cpus0.itb_walker_cache.overallMshrMisses::cpu_cluster.cpus0.mmu.itb_walker            7                       # number of overall MSHR misses (Count)
testsys.cpu_cluster.cpus0.itb_walker_cache.overallMshrMisses::total            7                       # number of overall MSHR misses (Count)
testsys.cpu_cluster.cpus0.itb_walker_cache.demandMshrMissLatency::cpu_cluster.cpus0.mmu.itb_walker       445993                       # number of demand (read+write) MSHR miss ticks (Tick)
testsys.cpu_cluster.cpus0.itb_walker_cache.demandMshrMissLatency::total       445993                       # number of demand (read+write) MSHR miss ticks (Tick)
testsys.cpu_cluster.cpus0.itb_walker_cache.overallMshrMissLatency::cpu_cluster.cpus0.mmu.itb_walker       445993                       # number of overall MSHR miss ticks (Tick)
testsys.cpu_cluster.cpus0.itb_walker_cache.overallMshrMissLatency::total       445993                       # number of overall MSHR miss ticks (Tick)
testsys.cpu_cluster.cpus0.itb_walker_cache.demandMshrMissRate::cpu_cluster.cpus0.mmu.itb_walker     0.194444                       # mshr miss ratio for demand accesses (Ratio)
testsys.cpu_cluster.cpus0.itb_walker_cache.demandMshrMissRate::total     0.194444                       # mshr miss ratio for demand accesses (Ratio)
testsys.cpu_cluster.cpus0.itb_walker_cache.overallMshrMissRate::cpu_cluster.cpus0.mmu.itb_walker     0.194444                       # mshr miss ratio for overall accesses (Ratio)
testsys.cpu_cluster.cpus0.itb_walker_cache.overallMshrMissRate::total     0.194444                       # mshr miss ratio for overall accesses (Ratio)
testsys.cpu_cluster.cpus0.itb_walker_cache.demandAvgMshrMissLatency::cpu_cluster.cpus0.mmu.itb_walker 63713.285714                       # average overall mshr miss latency ((Cycle/Count))
testsys.cpu_cluster.cpus0.itb_walker_cache.demandAvgMshrMissLatency::total 63713.285714                       # average overall mshr miss latency ((Cycle/Count))
testsys.cpu_cluster.cpus0.itb_walker_cache.overallAvgMshrMissLatency::cpu_cluster.cpus0.mmu.itb_walker 63713.285714                       # average overall mshr miss latency ((Cycle/Count))
testsys.cpu_cluster.cpus0.itb_walker_cache.overallAvgMshrMissLatency::total 63713.285714                       # average overall mshr miss latency ((Cycle/Count))
testsys.cpu_cluster.cpus0.itb_walker_cache.replacements            0                       # number of replacements (Count)
testsys.cpu_cluster.cpus0.itb_walker_cache.ReadReq.hits::cpu_cluster.cpus0.mmu.itb_walker           29                       # number of ReadReq hits (Count)
testsys.cpu_cluster.cpus0.itb_walker_cache.ReadReq.hits::total           29                       # number of ReadReq hits (Count)
testsys.cpu_cluster.cpus0.itb_walker_cache.ReadReq.misses::cpu_cluster.cpus0.mmu.itb_walker            7                       # number of ReadReq misses (Count)
testsys.cpu_cluster.cpus0.itb_walker_cache.ReadReq.misses::total            7                       # number of ReadReq misses (Count)
testsys.cpu_cluster.cpus0.itb_walker_cache.ReadReq.missLatency::cpu_cluster.cpus0.mmu.itb_walker       452993                       # number of ReadReq miss ticks (Tick)
testsys.cpu_cluster.cpus0.itb_walker_cache.ReadReq.missLatency::total       452993                       # number of ReadReq miss ticks (Tick)
[...]
testsys.pci_devices3.EtherDevice.postedTxOk            0                       # Number of TxOk interrupts posted to CPU (Count)
testsys.pci_devices3.EtherDevice.totalTxOk            0                       # Total number of TxOk written to ISR (Count)
testsys.pci_devices3.EtherDevice.coalescedTxOk          nan                       # Average number of TxOk's coalesced into each post ((Count/Count))
testsys.pci_devices3.EtherDevice.postedTxIdle            0                       # Number of TxIdle interrupts posted to CPU (Count)
testsys.pci_devices3.EtherDevice.totalTxIdle            0                       # Total number of TxIdle written to ISR (Count)
testsys.pci_devices3.EtherDevice.coalescedTxIdle          nan                       # Average number of TxIdle's coalesced into each post ((Count/Count))
testsys.pci_devices3.EtherDevice.postedTxDesc            0                       # Number of TxDesc interrupts posted to CPU (Count)
testsys.pci_devices3.EtherDevice.totalTxDesc            0                       # Total number of TxDesc written to ISR (Count)
testsys.pci_devices3.EtherDevice.coalescedTxDesc          nan                       # Average number of TxDesc's coalesced into each post ((Count/Count))
testsys.pci_devices3.EtherDevice.postedRxOrn            0                       # Number of RxOrn posted to CPU (Count)
testsys.pci_devices3.EtherDevice.totalRxOrn            0                       # Total number of RxOrn written to ISR (Count)
testsys.pci_devices3.EtherDevice.coalescedRxOrn          nan                       # Average number of RxOrn's coalesced into each post ((Count/Count))
testsys.pci_devices3.EtherDevice.coalescedTotal          nan                       # Average number of interrupts coalesced into each post ((Count/Count))
testsys.pci_devices3.EtherDevice.droppedPackets            0                       # Number of packets dropped (Count)
testsys.pci_devices3.power_state.pwrStateResidencyTicks::UNDEFINED  47191468500                       # Cumulative time (in ticks) in various power states (Tick)
testsys.pci_devices4.EtherDevice.postedInterrupts            0                       # Number of posts to CPU (Count)
testsys.pci_devices4.EtherDevice.descDmaReads            0                       # Number of descriptors the device read w/ DMA (Count)
testsys.pci_devices4.EtherDevice.descDmaWrites            0                       # Number of descriptors the device wrote w/ DMA (Count)
testsys.pci_devices4.EtherDevice.descDmaRdBytes            0                       # Number of descriptor bytes read w/ DMA (Count)
testsys.pci_devices4.EtherDevice.descDmaWrBytes            0                       # Number of descriptor bytes write w/ DMA (Count)
testsys.pci_devices4.EtherDevice.postedSwi            0                       # Number of software interrupts posted to CPU (Count)
testsys.pci_devices4.EtherDevice.totalSwi            0                       # Total number of Swi written to ISR (Count)
testsys.pci_devices4.EtherDevice.coalescedSwi          nan                       # Average number of Swi's coalesced into each post ((Count/Count))
testsys.pci_devices4.EtherDevice.postedRxIdle            0                       # Number of rxIdle interrupts posted to CPU (Count)
testsys.pci_devices4.EtherDevice.totalRxIdle            0                       # Total number of RxIdle written to ISR (Count)
testsys.pci_devices4.EtherDevice.coalescedRxIdle          nan                       # Average number of RxIdle's coalesced into each post ((Count/Count))
testsys.pci_devices4.EtherDevice.postedRxOk            0                       # Number of RxOk interrupts posted to CPU (Count)
testsys.pci_devices4.EtherDevice.totalRxOk            0                       # Total number of RxOk written to ISR (Count)
testsys.pci_devices4.EtherDevice.coalescedRxOk          nan                       # Average number of RxOk's coalesced into each post ((Count/Count))
testsys.pci_devices4.EtherDevice.postedRxDesc            0                       # Number of RxDesc interrupts posted to CPU (Count)
testsys.pci_devices4.EtherDevice.totalRxDesc            0                       # Total number of RxDesc written to ISR (Count)
testsys.pci_devices4.EtherDevice.coalescedRxDesc          nan                       # Average number of RxDesc's coalesced into each post ((Count/Count))
testsys.pci_devices4.EtherDevice.postedTxOk            0                       # Number of TxOk interrupts posted to CPU (Count)
testsys.pci_devices4.EtherDevice.totalTxOk            0                       # Total number of TxOk written to ISR (Count)
testsys.pci_devices4.EtherDevice.coalescedTxOk          nan                       # Average number of TxOk's coalesced into each post ((Count/Count))
testsys.pci_devices4.EtherDevice.postedTxIdle            0                       # Number of TxIdle interrupts posted to CPU (Count)
testsys.pci_devices4.EtherDevice.totalTxIdle            0                       # Total number of TxIdle written to ISR (Count)
testsys.pci_devices4.EtherDevice.coalescedTxIdle          nan                       # Average number of TxIdle's coalesced into each post ((Count/Count))
testsys.pci_devices4.EtherDevice.postedTxDesc            0                       # Number of TxDesc interrupts posted to CPU (Count)
testsys.pci_devices4.EtherDevice.totalTxDesc            0                       # Total number of TxDesc written to ISR (Count)
testsys.pci_devices4.EtherDevice.coalescedTxDesc          nan                       # Average number of TxDesc's coalesced into each post ((Count/Count))
testsys.pci_devices4.EtherDevice.postedRxOrn            0                       # Number of RxOrn posted to CPU (Count)
testsys.pci_devices4.EtherDevice.totalRxOrn            0                       # Total number of RxOrn written to ISR (Count)
testsys.pci_devices4.EtherDevice.coalescedRxOrn          nan                       # Average number of RxOrn's coalesced into each post ((Count/Count))
testsys.pci_devices4.EtherDevice.coalescedTotal          nan                       # Average number of interrupts coalesced into each post ((Count/Count))
testsys.pci_devices4.EtherDevice.droppedPackets            0                       # Number of packets dropped (Count)
testsys.pci_devices4.power_state.pwrStateResidencyTicks::UNDEFINED  47191468500                       # Cumulative time (in ticks) in various power states (Tick)
testsys.realview.bootmem.bytesRead::cpu_cluster.cpus0.inst          108                       # Number of bytes read from this memory (Byte)
testsys.realview.bootmem.bytesRead::cpu_cluster.cpus0.data           28                       # Number of bytes read from this memory (Byte)
testsys.realview.bootmem.bytesRead::cpu_cluster.cpus1.inst           76                       # Number of bytes read from this memory (Byte)
testsys.realview.bootmem.bytesRead::cpu_cluster.cpus1.data            8                       # Number of bytes read from this memory (Byte)
testsys.realview.bootmem.bytesRead::cpu_cluster.cpus2.inst           76                       # Number of bytes read from this memory (Byte)
testsys.realview.bootmem.bytesRead::cpu_cluster.cpus2.data            8                       # Number of bytes read from this memory (Byte)
testsys.realview.bootmem.bytesRead::cpu_cluster.cpus3.inst           76                       # Number of bytes read from this memory (Byte)
testsys.realview.bootmem.bytesRead::cpu_cluster.cpus3.data            8                       # Number of bytes read from this memory (Byte)
testsys.realview.bootmem.bytesRead::total          388                       # Number of bytes read from this memory (Byte)
testsys.realview.bootmem.bytesInstRead::cpu_cluster.cpus0.inst          108                       # Number of instructions bytes read from this memory (Byte)
testsys.realview.bootmem.bytesInstRead::cpu_cluster.cpus1.inst           76                       # Number of instructions bytes read from this memory (Byte)
testsys.realview.bootmem.bytesInstRead::cpu_cluster.cpus2.inst           76                       # Number of instructions bytes read from this memory (Byte)
testsys.realview.bootmem.bytesInstRead::cpu_cluster.cpus3.inst           76                       # Number of instructions bytes read from this memory (Byte)
testsys.realview.bootmem.bytesInstRead::total          336                       # Number of instructions bytes read from this memory (Byte)
testsys.realview.bootmem.numReads::cpu_cluster.cpus0.inst           27                       # Number of read requests responded to by this memory (Count)
testsys.realview.bootmem.numReads::cpu_cluster.cpus0.data            4                       # Number of read requests responded to by this memory (Count)
testsys.realview.bootmem.numReads::cpu_cluster.cpus1.inst           19                       # Number of read requests responded to by this memory (Count)
testsys.realview.bootmem.numReads::cpu_cluster.cpus1.data            1                       # Number of read requests responded to by this memory (Count)
testsys.realview.bootmem.numReads::cpu_cluster.cpus2.inst           19                       # Number of read requests responded to by this memory (Count)
testsys.realview.bootmem.numReads::cpu_cluster.cpus2.data            1                       # Number of read requests responded to by this memory (Count)
testsys.realview.bootmem.numReads::cpu_cluster.cpus3.inst           19                       # Number of read requests responded to by this memory (Count)
testsys.realview.bootmem.numReads::cpu_cluster.cpus3.data            1                       # Number of read requests responded to by this memory (Count)
testsys.realview.bootmem.numReads::total           91                       # Number of read requests responded to by this memory (Count)
testsys.realview.bootmem.bwRead::cpu_cluster.cpus0.inst         2289                       # Total read bandwidth from this memory ((Byte/Second))
testsys.realview.bootmem.bwRead::cpu_cluster.cpus0.data          593                       # Total read bandwidth from this memory ((Byte/Second))
testsys.realview.bootmem.bwRead::cpu_cluster.cpus1.inst         1610                       # Total read bandwidth from this memory ((Byte/Second))
testsys.realview.bootmem.bwRead::cpu_cluster.cpus1.data          170                       # Total read bandwidth from this memory ((Byte/Second))
testsys.realview.bootmem.bwRead::cpu_cluster.cpus2.inst         1610                       # Total read bandwidth from this memory ((Byte/Second))
testsys.realview.bootmem.bwRead::cpu_cluster.cpus2.data          170                       # Total read bandwidth from this memory ((Byte/Second))
testsys.realview.bootmem.bwRead::cpu_cluster.cpus3.inst         1610                       # Total read bandwidth from this memory ((Byte/Second))
testsys.realview.bootmem.bwRead::cpu_cluster.cpus3.data          170                       # Total read bandwidth from this memory ((Byte/Second))
testsys.realview.bootmem.bwRead::total           8222                       # Total read bandwidth from this memory ((Byte/Second))
testsys.realview.bootmem.bwInstRead::cpu_cluster.cpus0.inst         2289                       # Instruction read bandwidth from this memory ((Byte/Second))
testsys.realview.bootmem.bwInstRead::cpu_cluster.cpus1.inst         1610                       # Instruction read bandwidth from this memory ((Byte/Second))
testsys.realview.bootmem.bwInstRead::cpu_cluster.cpus2.inst         1610                       # Instruction read bandwidth from this memory ((Byte/Second))
testsys.realview.bootmem.bwInstRead::cpu_cluster.cpus3.inst         1610                       # Instruction read bandwidth from this memory ((Byte/Second))
testsys.realview.bootmem.bwInstRead::total         7120                       # Instruction read bandwidth from this memory ((Byte/Second))
testsys.realview.bootmem.bwTotal::cpu_cluster.cpus0.inst         2289                       # Total bandwidth to/from this memory ((Byte/Second))
testsys.realview.bootmem.bwTotal::cpu_cluster.cpus0.data          593                       # Total bandwidth to/from this memory ((Byte/Second))
testsys.realview.bootmem.bwTotal::cpu_cluster.cpus1.inst         1610                       # Total bandwidth to/from this memory ((Byte/Second))
testsys.realview.bootmem.bwTotal::cpu_cluster.cpus1.data          170                       # Total bandwidth to/from this memory ((Byte/Second))
testsys.realview.bootmem.bwTotal::cpu_cluster.cpus2.inst         1610                       # Total bandwidth to/from this memory ((Byte/Second))
testsys.realview.bootmem.bwTotal::cpu_cluster.cpus2.data          170                       # Total bandwidth to/from this memory ((Byte/Second))
testsys.realview.bootmem.bwTotal::cpu_cluster.cpus3.inst         1610                       # Total bandwidth to/from this memory ((Byte/Second))
testsys.realview.bootmem.bwTotal::cpu_cluster.cpus3.data          170                       # Total bandwidth to/from this memory ((Byte/Second))
testsys.realview.bootmem.bwTotal::total          8222                       # Total bandwidth to/from this memory ((Byte/Second))
testsys.realview.bootmem.power_state.pwrStateResidencyTicks::UNDEFINED  47191468500                       # Cumulative time (in ticks) in various power states (Tick)
testsys.realview.clock24MHz.clock               41667                       # Clock period in ticks (Tick)
testsys.realview.clock32KHz.clock            31250000                       # Clock period in ticks (Tick)
testsys.realview.dcc.osc_cpu.clock              16667                       # Clock period in ticks (Tick)
testsys.realview.dcc.osc_ddr.clock              25000                       # Clock period in ticks (Tick)
testsys.realview.dcc.osc_hsbm.clock             25000                       # Clock period in ticks (Tick)
testsys.realview.dcc.osc_pxl.clock              42105                       # Clock period in ticks (Tick)
testsys.realview.dcc.osc_smb.clock              20000                       # Clock period in ticks (Tick)
testsys.realview.dcc.osc_sys.clock              16667                       # Clock period in ticks (Tick)
testsys.realview.el2_watchdog.power_state.pwrStateResidencyTicks::UNDEFINED  47191468500                       # Cumulative time (in ticks) in various power states (Tick)
testsys.realview.energy_ctrl.power_state.pwrStateResidencyTicks::UNDEFINED  47191468500                       # Cumulative time (in ticks) in various power states (Tick)
testsys.realview.flash0.power_state.pwrStateResidencyTicks::UNDEFINED  47191468500                       # Cumulative time (in ticks) in various power states (Tick)
testsys.realview.flash1.power_state.pwrStateResidencyTicks::UNDEFINED  47191468500                       # Cumulative time (in ticks) in various power states (Tick)
testsys.realview.generic_timer_mem.frames0.power_state.pwrStateResidencyTicks::UNDEFINED  47191468500                       # Cumulative time (in ticks) in various power states (Tick)
testsys.realview.generic_timer_mem.frames1.power_state.pwrStateResidencyTicks::UNDEFINED  47191468500                       # Cumulative time (in ticks) in various power states (Tick)
testsys.realview.generic_timer_mem.power_state.pwrStateResidencyTicks::UNDEFINED  47191468500                       # Cumulative time (in ticks) in various power states (Tick)
testsys.realview.gic.power_state.pwrStateResidencyTicks::UNDEFINED  47191468500                       # Cumulative time (in ticks) in various power states (Tick)
testsys.realview.gicv2m.power_state.pwrStateResidencyTicks::UNDEFINED  47191468500                       # Cumulative time (in ticks) in various power states (Tick)
testsys.realview.io_voltage.voltage          3.300000                       # Voltage in Volts (Volt)
testsys.realview.kmi0.power_state.pwrStateResidencyTicks::UNDEFINED  47191468500                       # Cumulative time (in ticks) in various power states (Tick)
testsys.realview.kmi1.power_state.pwrStateResidencyTicks::UNDEFINED  47191468500                       # Cumulative time (in ticks) in various power states (Tick)
testsys.realview.mcc.osc_clcd.clock             42105                       # Clock period in ticks (Tick)
testsys.realview.mcc.osc_mcc.clock              20000                       # Clock period in ticks (Tick)
testsys.realview.mcc.osc_peripheral.clock        41667                       # Clock period in ticks (Tick)
testsys.realview.mcc.osc_system_bus.clock        41667                       # Clock period in ticks (Tick)
testsys.realview.non_trusted_sram.power_state.pwrStateResidencyTicks::UNDEFINED  47191468500                       # Cumulative time (in ticks) in various power states (Tick)
testsys.realview.pci_host.power_state.pwrStateResidencyTicks::UNDEFINED  47191468500                       # Cumulative time (in ticks) in various power states (Tick)
testsys.realview.pwr_ctrl.power_state.pwrStateResidencyTicks::UNDEFINED  47191468500                       # Cumulative time (in ticks) in various power states (Tick)
testsys.realview.realview_io.power_state.pwrStateResidencyTicks::UNDEFINED  47191468500                       # Cumulative time (in ticks) in various power states (Tick)
testsys.realview.rtc.power_state.pwrStateResidencyTicks::UNDEFINED  47191468500                       # Cumulative time (in ticks) in various power states (Tick)
testsys.realview.system_watchdog.power_state.pwrStateResidencyTicks::UNDEFINED  47191468500                       # Cumulative time (in ticks) in various power states (Tick)
testsys.realview.trusted_sram.power_state.pwrStateResidencyTicks::UNDEFINED  47191468500                       # Cumulative time (in ticks) in various power states (Tick)
testsys.realview.trusted_watchdog.power_state.pwrStateResidencyTicks::UNDEFINED  47191468500                       # Cumulative time (in ticks) in various power states (Tick)
testsys.realview.uart0.power_state.pwrStateResidencyTicks::UNDEFINED  47191468500                       # Cumulative time (in ticks) in various power states (Tick)
testsys.realview.uart1.power_state.pwrStateResidencyTicks::UNDEFINED  47191468500                       # Cumulative time (in ticks) in various power states (Tick)
testsys.realview.uart2.power_state.pwrStateResidencyTicks::UNDEFINED  47191468500                       # Cumulative time (in ticks) in various power states (Tick)
testsys.realview.uart3.power_state.pwrStateResidencyTicks::UNDEFINED  47191468500                       # Cumulative time (in ticks) in various power states (Tick)
testsys.realview.vgic.power_state.pwrStateResidencyTicks::UNDEFINED  47191468500                       # Cumulative time (in ticks) in various power states (Tick)
testsys.realview.vio0.power_state.pwrStateResidencyTicks::UNDEFINED  47191468500                       # Cumulative time (in ticks) in various power states (Tick)
testsys.realview.vio1.power_state.pwrStateResidencyTicks::UNDEFINED  47191468500                       # Cumulative time (in ticks) in various power states (Tick)
testsys.realview.vram.power_state.pwrStateResidencyTicks::UNDEFINED  47191468500                       # Cumulative time (in ticks) in various power states (Tick)
testsys.realview.watchdog.power_state.pwrStateResidencyTicks::UNDEFINED  47191468500                       # Cumulative time (in ticks) in various power states (Tick)
testsys.voltage_domain.voltage                      1                       # Voltage in Volts (Volt)
testsys.workload.inst.arm                           0                       # number of arm instructions executed (Count)
testsys.workload.inst.quiesce                       6                       # number of quiesce instructions executed (Count)

---------- End Simulation Statistics   ----------
