
---------- Begin Simulation Statistics ----------
simSeconds                                   0.800021                       # Number of seconds simulated (Second)
simTicks                                 800021403000                       # Number of ticks simulated (Tick)
finalTick                                1289968970750                       # Number of ticks from beginning of simulation (restored from checkpoints and never reset) (Tick)
simFreq                                  1000000000000                       # The number of ticks per simulated second ((Tick/Second))
hostSeconds                                   3438.38                       # Real time elapsed on the host (Second)
hostTickRate                                232673844                       # The number of ticks simulated per host second (ticks/s) ((Tick/Second))
hostMemory                                    3058324                       # Number of bytes of host memory used (Byte)
simInsts                                   1842310268                       # Number of instructions simulated (Count)
simOps                                     1847608235                       # Number of ops (including micro ops) simulated (Count)
hostInstRate                                   535807                       # Simulator instruction rate (inst/s) ((Count/Second))
hostOpRate                                     537348                       # Simulator op (including micro ops) rate (op/s) ((Count/Second))
testsys.clk_domain.clock                         1000                       # Clock period in ticks (Tick)
testsys.cpu_cluster.clk_domain.clock              250                       # Clock period in ticks (Tick)
testsys.cpu_cluster.cpus0.numCycles        3200586695                       # Number of cpu cycles simulated (Cycle)
testsys.cpu_cluster.cpus0.numWorkItemsStarted            0                       # Number of work items this cpu started (Count)
testsys.cpu_cluster.cpus0.numWorkItemsCompleted            0                       # Number of work items this cpu completed (Count)
testsys.cpu_cluster.cpus0.dcache.demandHits::cpu_cluster.cpus0.data      1399696                       # number of demand (read+write) hits (Count)
testsys.cpu_cluster.cpus0.dcache.demandHits::total      1399696                       # number of demand (read+write) hits (Count)
testsys.cpu_cluster.cpus0.dcache.overallHits::cpu_cluster.cpus0.data      1399777                       # number of overall hits (Count)
testsys.cpu_cluster.cpus0.dcache.overallHits::total      1399777                       # number of overall hits (Count)
testsys.cpu_cluster.cpus0.dcache.demandMisses::cpu_cluster.cpus0.data        10259                       # number of demand (read+write) misses (Count)
testsys.cpu_cluster.cpus0.dcache.demandMisses::total        10259                       # number of demand (read+write) misses (Count)
testsys.cpu_cluster.cpus0.dcache.overallMisses::cpu_cluster.cpus0.data        10290                       # number of overall misses (Count)
testsys.cpu_cluster.cpus0.dcache.overallMisses::total        10290                       # number of overall misses (Count)
testsys.cpu_cluster.cpus0.dcache.demandMissLatency::cpu_cluster.cpus0.data    249429250                       # number of demand (read+write) miss ticks (Tick)
testsys.cpu_cluster.cpus0.dcache.demandMissLatency::total    249429250                       # number of demand (read+write) miss ticks (Tick)
testsys.cpu_cluster.cpus0.dcache.overallMissLatency::cpu_cluster.cpus0.data    249429250                       # number of overall miss ticks (Tick)
testsys.cpu_cluster.cpus0.dcache.overallMissLatency::total    249429250                       # number of overall miss ticks (Tick)
testsys.cpu_cluster.cpus0.dcache.demandAccesses::cpu_cluster.cpus0.data      1409955                       # number of demand (read+write) accesses (Count)
testsys.cpu_cluster.cpus0.dcache.demandAccesses::total      1409955                       # number of demand (read+write) accesses (Count)
testsys.cpu_cluster.cpus0.dcache.overallAccesses::cpu_cluster.cpus0.data      1410067                       # number of overall (read+write) accesses (Count)
testsys.cpu_cluster.cpus0.dcache.overallAccesses::total      1410067                       # number of overall (read+write) accesses (Count)
testsys.cpu_cluster.cpus0.dcache.demandMissRate::cpu_cluster.cpus0.data     0.007276                       # miss rate for demand accesses (Ratio)
testsys.cpu_cluster.cpus0.dcache.demandMissRate::total     0.007276                       # miss rate for demand accesses (Ratio)
testsys.cpu_cluster.cpus0.dcache.overallMissRate::cpu_cluster.cpus0.data     0.007298                       # miss rate for overall accesses (Ratio)
testsys.cpu_cluster.cpus0.dcache.overallMissRate::total     0.007298                       # miss rate for overall accesses (Ratio)
testsys.cpu_cluster.cpus0.dcache.demandAvgMissLatency::cpu_cluster.cpus0.data 24313.212789                       # average overall miss latency ((Cycle/Count))
testsys.cpu_cluster.cpus0.dcache.demandAvgMissLatency::total 24313.212789                       # average overall miss latency ((Cycle/Count))
testsys.cpu_cluster.cpus0.dcache.overallAvgMissLatency::cpu_cluster.cpus0.data 24239.965986                       # average overall miss latency ((Cycle/Count))
testsys.cpu_cluster.cpus0.dcache.overallAvgMissLatency::total 24239.965986                       # average overall miss latency ((Cycle/Count))
testsys.cpu_cluster.cpus0.dcache.blockedCycles::no_mshrs            0                       # number of cycles access was blocked (Cycle)
testsys.cpu_cluster.cpus0.dcache.blockedCycles::no_targets            0                       # number of cycles access was blocked (Cycle)
testsys.cpu_cluster.cpus0.dcache.blockedCauses::no_mshrs            0                       # number of times access was blocked (Count)
testsys.cpu_cluster.cpus0.dcache.blockedCauses::no_targets            0                       # number of times access was blocked (Count)
testsys.cpu_cluster.cpus0.dcache.avgBlocked::no_mshrs          nan                       # average number of cycles each access was blocked ((Cycle/Count))
testsys.cpu_cluster.cpus0.dcache.avgBlocked::no_targets          nan                       # average number of cycles each access was blocked ((Cycle/Count))
testsys.cpu_cluster.cpus0.dcache.writebacks::writebacks         5424                       # number of writebacks (Count)
testsys.cpu_cluster.cpus0.dcache.writebacks::total         5424                       # number of writebacks (Count)
testsys.cpu_cluster.cpus0.dcache.demandMshrHits::cpu_cluster.cpus0.data            9                       # number of demand (read+write) MSHR hits (Count)
testsys.cpu_cluster.cpus0.dcache.demandMshrHits::total            9                       # number of demand (read+write) MSHR hits (Count)
testsys.cpu_cluster.cpus0.dcache.overallMshrHits::cpu_cluster.cpus0.data            9                       # number of overall MSHR hits (Count)
testsys.cpu_cluster.cpus0.dcache.overallMshrHits::total            9                       # number of overall MSHR hits (Count)
testsys.cpu_cluster.cpus0.dcache.demandMshrMisses::cpu_cluster.cpus0.data        10250                       # number of demand (read+write) MSHR misses (Count)
testsys.cpu_cluster.cpus0.dcache.demandMshrMisses::total        10250                       # number of demand (read+write) MSHR misses (Count)
testsys.cpu_cluster.cpus0.dcache.overallMshrMisses::cpu_cluster.cpus0.data        10281                       # number of overall MSHR misses (Count)
testsys.cpu_cluster.cpus0.dcache.overallMshrMisses::total        10281                       # number of overall MSHR misses (Count)
testsys.cpu_cluster.cpus0.dcache.overallMshrUncacheable::cpu_cluster.cpus0.data          188                       # number of overall MSHR uncacheable misses (Count)
testsys.cpu_cluster.cpus0.dcache.overallMshrUncacheable::total          188                       # number of overall MSHR uncacheable misses (Count)
testsys.cpu_cluster.cpus0.dcache.demandMshrMissLatency::cpu_cluster.cpus0.data    246229500                       # number of demand (read+write) MSHR miss ticks (Tick)
testsys.cpu_cluster.cpus0.dcache.demandMshrMissLatency::total    246229500                       # number of demand (read+write) MSHR miss ticks (Tick)
testsys.cpu_cluster.cpus0.dcache.overallMshrMissLatency::cpu_cluster.cpus0.data    247985500                       # number of overall MSHR miss ticks (Tick)
testsys.cpu_cluster.cpus0.dcache.overallMshrMissLatency::total    247985500                       # number of overall MSHR miss ticks (Tick)
testsys.cpu_cluster.cpus0.dcache.overallMshrUncacheableLatency::cpu_cluster.cpus0.data      5463750                       # number of overall MSHR uncacheable ticks (Tick)
testsys.cpu_cluster.cpus0.dcache.overallMshrUncacheableLatency::total      5463750                       # number of overall MSHR uncacheable ticks (Tick)
testsys.cpu_cluster.cpus0.dcache.demandMshrMissRate::cpu_cluster.cpus0.data     0.007270                       # mshr miss ratio for demand accesses (Ratio)
testsys.cpu_cluster.cpus0.dcache.demandMshrMissRate::total     0.007270                       # mshr miss ratio for demand accesses (Ratio)
testsys.cpu_cluster.cpus0.dcache.overallMshrMissRate::cpu_cluster.cpus0.data     0.007291                       # mshr miss ratio for overall accesses (Ratio)
testsys.cpu_cluster.cpus0.dcache.overallMshrMissRate::total     0.007291                       # mshr miss ratio for overall accesses (Ratio)
testsys.cpu_cluster.cpus0.dcache.demandAvgMshrMissLatency::cpu_cluster.cpus0.data 24022.390244                       # average overall mshr miss latency ((Cycle/Count))
testsys.cpu_cluster.cpus0.dcache.demandAvgMshrMissLatency::total 24022.390244                       # average overall mshr miss latency ((Cycle/Count))
testsys.cpu_cluster.cpus0.dcache.overallAvgMshrMissLatency::cpu_cluster.cpus0.data 24120.756736                       # average overall mshr miss latency ((Cycle/Count))
testsys.cpu_cluster.cpus0.dcache.overallAvgMshrMissLatency::total 24120.756736                       # average overall mshr miss latency ((Cycle/Count))
testsys.cpu_cluster.cpus0.dcache.overallAvgMshrUncacheableLatency::cpu_cluster.cpus0.data 29062.500000                       # average overall mshr uncacheable latency ((Cycle/Count))
testsys.cpu_cluster.cpus0.dcache.overallAvgMshrUncacheableLatency::total 29062.500000                       # average overall mshr uncacheable latency ((Cycle/Count))
testsys.cpu_cluster.cpus0.dcache.replacements         8352                       # number of replacements (Count)
testsys.cpu_cluster.cpus0.dcache.LoadLockedReq.hits::cpu_cluster.cpus0.data           76                       # number of LoadLockedReq hits (Count)
testsys.cpu_cluster.cpus0.dcache.LoadLockedReq.hits::total           76                       # number of LoadLockedReq hits (Count)
testsys.cpu_cluster.cpus0.dcache.LoadLockedReq.misses::cpu_cluster.cpus0.data            2                       # number of LoadLockedReq misses (Count)
testsys.cpu_cluster.cpus0.dcache.LoadLockedReq.misses::total            2                       # number of LoadLockedReq misses (Count)
testsys.cpu_cluster.cpus0.dcache.LoadLockedReq.missLatency::cpu_cluster.cpus0.data         8500                       # number of LoadLockedReq miss ticks (Tick)
testsys.cpu_cluster.cpus0.dcache.LoadLockedReq.missLatency::total         8500                       # number of LoadLockedReq miss ticks (Tick)
testsys.cpu_cluster.cpus0.dcache.LoadLockedReq.accesses::cpu_cluster.cpus0.data           78                       # number of LoadLockedReq accesses(hits+misses) (Count)
testsys.cpu_cluster.cpus0.dcache.LoadLockedReq.accesses::total           78                       # number of LoadLockedReq accesses(hits+misses) (Count)
testsys.cpu_cluster.cpus0.dcache.LoadLockedReq.missRate::cpu_cluster.cpus0.data     0.025641                       # miss rate for LoadLockedReq accesses (Ratio)
testsys.cpu_cluster.cpus0.dcache.LoadLockedReq.missRate::total     0.025641                       # miss rate for LoadLockedReq accesses (Ratio)
testsys.cpu_cluster.cpus0.dcache.LoadLockedReq.avgMissLatency::cpu_cluster.cpus0.data         4250                       # average LoadLockedReq miss latency ((Tick/Count))
testsys.cpu_cluster.cpus0.dcache.LoadLockedReq.avgMissLatency::total         4250                       # average LoadLockedReq miss latency ((Tick/Count))
testsys.cpu_cluster.cpus0.dcache.LoadLockedReq.mshrMisses::cpu_cluster.cpus0.data            2                       # number of LoadLockedReq MSHR misses (Count)
testsys.cpu_cluster.cpus0.dcache.LoadLockedReq.mshrMisses::total            2                       # number of LoadLockedReq MSHR misses (Count)
testsys.cpu_cluster.cpus0.dcache.LoadLockedReq.mshrMissLatency::cpu_cluster.cpus0.data         8000                       # number of LoadLockedReq MSHR miss ticks (Tick)
testsys.cpu_cluster.cpus0.dcache.LoadLockedReq.mshrMissLatency::total         8000                       # number of LoadLockedReq MSHR miss ticks (Tick)
testsys.cpu_cluster.cpus0.dcache.LoadLockedReq.mshrMissRate::cpu_cluster.cpus0.data     0.025641                       # mshr miss rate for LoadLockedReq accesses (Ratio)
testsys.cpu_cluster.cpus0.dcache.LoadLockedReq.mshrMissRate::total     0.025641                       # mshr miss rate for LoadLockedReq accesses (Ratio)
testsys.cpu_cluster.cpus0.dcache.LoadLockedReq.avgMshrMissLatency::cpu_cluster.cpus0.data         4000                       # average LoadLockedReq mshr miss latency ((Tick/Count))
testsys.cpu_cluster.cpus0.dcache.LoadLockedReq.avgMshrMissLatency::total         4000                       # average LoadLockedReq mshr miss latency ((Tick/Count))
testsys.cpu_cluster.cpus0.dcache.ReadReq.hits::cpu_cluster.cpus0.data       743833                       # number of ReadReq hits (Count)
testsys.cpu_cluster.cpus0.dcache.ReadReq.hits::total       743833                       # number of ReadReq hits (Count)
testsys.cpu_cluster.cpus0.dcache.ReadReq.misses::cpu_cluster.cpus0.data         7042                       # number of ReadReq misses (Count)
testsys.cpu_cluster.cpus0.dcache.ReadReq.misses::total         7042                       # number of ReadReq misses (Count)
testsys.cpu_cluster.cpus0.dcache.ReadReq.missLatency::cpu_cluster.cpus0.data    203842500                       # number of ReadReq miss ticks (Tick)
testsys.cpu_cluster.cpus0.dcache.ReadReq.missLatency::total    203842500                       # number of ReadReq miss ticks (Tick)
testsys.cpu_cluster.cpus0.dcache.ReadReq.accesses::cpu_cluster.cpus0.data       750875                       # number of ReadReq accesses(hits+misses) (Count)
testsys.cpu_cluster.cpus0.dcache.ReadReq.accesses::total       750875                       # number of ReadReq accesses(hits+misses) (Count)
testsys.cpu_cluster.cpus0.dcache.ReadReq.missRate::cpu_cluster.cpus0.data     0.009378                       # miss rate for ReadReq accesses (Ratio)
testsys.cpu_cluster.cpus0.dcache.ReadReq.missRate::total     0.009378                       # miss rate for ReadReq accesses (Ratio)
testsys.cpu_cluster.cpus0.dcache.ReadReq.avgMissLatency::cpu_cluster.cpus0.data 28946.677080                       # average ReadReq miss latency ((Tick/Count))
testsys.cpu_cluster.cpus0.dcache.ReadReq.avgMissLatency::total 28946.677080                       # average ReadReq miss latency ((Tick/Count))
testsys.cpu_cluster.cpus0.dcache.ReadReq.mshrHits::cpu_cluster.cpus0.data            7                       # number of ReadReq MSHR hits (Count)
testsys.cpu_cluster.cpus0.dcache.ReadReq.mshrHits::total            7                       # number of ReadReq MSHR hits (Count)
testsys.cpu_cluster.cpus0.dcache.ReadReq.mshrMisses::cpu_cluster.cpus0.data         7035                       # number of ReadReq MSHR misses (Count)
testsys.cpu_cluster.cpus0.dcache.ReadReq.mshrMisses::total         7035                       # number of ReadReq MSHR misses (Count)
testsys.cpu_cluster.cpus0.dcache.ReadReq.mshrUncacheable::cpu_cluster.cpus0.data          128                       # number of ReadReq MSHR uncacheable (Count)
testsys.cpu_cluster.cpus0.dcache.ReadReq.mshrUncacheable::total          128                       # number of ReadReq MSHR uncacheable (Count)
testsys.cpu_cluster.cpus0.dcache.ReadReq.mshrMissLatency::cpu_cluster.cpus0.data    201574750                       # number of ReadReq MSHR miss ticks (Tick)
testsys.cpu_cluster.cpus0.dcache.ReadReq.mshrMissLatency::total    201574750                       # number of ReadReq MSHR miss ticks (Tick)
testsys.cpu_cluster.cpus0.dcache.ReadReq.mshrUncacheableLatency::cpu_cluster.cpus0.data      5463750                       # number of ReadReq MSHR uncacheable ticks (Tick)
testsys.cpu_cluster.cpus0.dcache.ReadReq.mshrUncacheableLatency::total      5463750                       # number of ReadReq MSHR uncacheable ticks (Tick)
testsys.cpu_cluster.cpus0.dcache.ReadReq.mshrMissRate::cpu_cluster.cpus0.data     0.009369                       # mshr miss rate for ReadReq accesses (Ratio)
testsys.cpu_cluster.cpus0.dcache.ReadReq.mshrMissRate::total     0.009369                       # mshr miss rate for ReadReq accesses (Ratio)
testsys.cpu_cluster.cpus0.dcache.ReadReq.avgMshrMissLatency::cpu_cluster.cpus0.data 28653.127221                       # average ReadReq mshr miss latency ((Tick/Count))
testsys.cpu_cluster.cpus0.dcache.ReadReq.avgMshrMissLatency::total 28653.127221                       # average ReadReq mshr miss latency ((Tick/Count))
testsys.cpu_cluster.cpus0.dcache.ReadReq.avgMshrUncacheableLatency::cpu_cluster.cpus0.data 42685.546875                       # average ReadReq mshr uncacheable latency ((Tick/Count))
testsys.cpu_cluster.cpus0.dcache.ReadReq.avgMshrUncacheableLatency::total 42685.546875                       # average ReadReq mshr uncacheable latency ((Tick/Count))
testsys.cpu_cluster.cpus0.dcache.SoftPFReq.hits::cpu_cluster.cpus0.data           81                       # number of SoftPFReq hits (Count)
testsys.cpu_cluster.cpus0.dcache.SoftPFReq.hits::total           81                       # number of SoftPFReq hits (Count)
testsys.cpu_cluster.cpus0.dcache.SoftPFReq.misses::cpu_cluster.cpus0.data           31                       # number of SoftPFReq misses (Count)
testsys.cpu_cluster.cpus0.dcache.SoftPFReq.misses::total           31                       # number of SoftPFReq misses (Count)
testsys.cpu_cluster.cpus0.dcache.SoftPFReq.accesses::cpu_cluster.cpus0.data          112                       # number of SoftPFReq accesses(hits+misses) (Count)
testsys.cpu_cluster.cpus0.dcache.SoftPFReq.accesses::total          112                       # number of SoftPFReq accesses(hits+misses) (Count)
testsys.cpu_cluster.cpus0.dcache.SoftPFReq.missRate::cpu_cluster.cpus0.data     0.276786                       # miss rate for SoftPFReq accesses (Ratio)
testsys.cpu_cluster.cpus0.dcache.SoftPFReq.missRate::total     0.276786                       # miss rate for SoftPFReq accesses (Ratio)
testsys.cpu_cluster.cpus0.dcache.SoftPFReq.mshrMisses::cpu_cluster.cpus0.data           31                       # number of SoftPFReq MSHR misses (Count)
testsys.cpu_cluster.cpus0.dcache.SoftPFReq.mshrMisses::total           31                       # number of SoftPFReq MSHR misses (Count)
testsys.cpu_cluster.cpus0.dcache.SoftPFReq.mshrMissLatency::cpu_cluster.cpus0.data      1756000                       # number of SoftPFReq MSHR miss ticks (Tick)
testsys.cpu_cluster.cpus0.dcache.SoftPFReq.mshrMissLatency::total      1756000                       # number of SoftPFReq MSHR miss ticks (Tick)
testsys.cpu_cluster.cpus0.dcache.SoftPFReq.mshrMissRate::cpu_cluster.cpus0.data     0.276786                       # mshr miss rate for SoftPFReq accesses (Ratio)
testsys.cpu_cluster.cpus0.dcache.SoftPFReq.mshrMissRate::total     0.276786                       # mshr miss rate for SoftPFReq accesses (Ratio)
testsys.cpu_cluster.cpus0.dcache.SoftPFReq.avgMshrMissLatency::cpu_cluster.cpus0.data 56645.161290                       # average SoftPFReq mshr miss latency ((Tick/Count))
testsys.cpu_cluster.cpus0.dcache.SoftPFReq.avgMshrMissLatency::total 56645.161290                       # average SoftPFReq mshr miss latency ((Tick/Count))
testsys.cpu_cluster.cpus0.dcache.StoreCondReq.hits::cpu_cluster.cpus0.data           64                       # number of StoreCondReq hits (Count)
testsys.cpu_cluster.cpus0.dcache.StoreCondReq.hits::total           64                       # number of StoreCondReq hits (Count)
testsys.cpu_cluster.cpus0.dcache.StoreCondReq.accesses::cpu_cluster.cpus0.data           64                       # number of StoreCondReq accesses(hits+misses) (Count)
testsys.cpu_cluster.cpus0.dcache.StoreCondReq.accesses::total           64                       # number of StoreCondReq accesses(hits+misses) (Count)
testsys.cpu_cluster.cpus0.dcache.SwapReq.hits::cpu_cluster.cpus0.data        23241                       # number of SwapReq hits (Count)
testsys.cpu_cluster.cpus0.dcache.SwapReq.hits::total        23241                       # number of SwapReq hits (Count)
testsys.cpu_cluster.cpus0.dcache.SwapReq.misses::cpu_cluster.cpus0.data          527                       # number of SwapReq misses (Count)
testsys.cpu_cluster.cpus0.dcache.SwapReq.misses::total          527                       # number of SwapReq misses (Count)
testsys.cpu_cluster.cpus0.dcache.SwapReq.missLatency::cpu_cluster.cpus0.data      4326000                       # number of SwapReq miss ticks (Tick)
testsys.cpu_cluster.cpus0.dcache.SwapReq.missLatency::total      4326000                       # number of SwapReq miss ticks (Tick)
testsys.cpu_cluster.cpus0.dcache.SwapReq.accesses::cpu_cluster.cpus0.data        23768                       # number of SwapReq accesses(hits+misses) (Count)
testsys.cpu_cluster.cpus0.dcache.SwapReq.accesses::total        23768                       # number of SwapReq accesses(hits+misses) (Count)
testsys.cpu_cluster.cpus0.dcache.SwapReq.missRate::cpu_cluster.cpus0.data     0.022173                       # miss rate for SwapReq accesses (Ratio)
testsys.cpu_cluster.cpus0.dcache.SwapReq.missRate::total     0.022173                       # miss rate for SwapReq accesses (Ratio)
testsys.cpu_cluster.cpus0.dcache.SwapReq.avgMissLatency::cpu_cluster.cpus0.data  8208.728653                       # average SwapReq miss latency ((Tick/Count))
testsys.cpu_cluster.cpus0.dcache.SwapReq.avgMissLatency::total  8208.728653                       # average SwapReq miss latency ((Tick/Count))
testsys.cpu_cluster.cpus0.dcache.SwapReq.mshrMisses::cpu_cluster.cpus0.data          527                       # number of SwapReq MSHR misses (Count)
testsys.cpu_cluster.cpus0.dcache.SwapReq.mshrMisses::total          527                       # number of SwapReq MSHR misses (Count)
testsys.cpu_cluster.cpus0.dcache.SwapReq.mshrMissLatency::cpu_cluster.cpus0.data      4194250                       # number of SwapReq MSHR miss ticks (Tick)
testsys.cpu_cluster.cpus0.dcache.SwapReq.mshrMissLatency::total      4194250                       # number of SwapReq MSHR miss ticks (Tick)
testsys.cpu_cluster.cpus0.dcache.SwapReq.mshrMissRate::cpu_cluster.cpus0.data     0.022173                       # mshr miss rate for SwapReq accesses (Ratio)
testsys.cpu_cluster.cpus0.dcache.SwapReq.mshrMissRate::total     0.022173                       # mshr miss rate for SwapReq accesses (Ratio)
testsys.cpu_cluster.cpus0.dcache.SwapReq.avgMshrMissLatency::cpu_cluster.cpus0.data  7958.728653                       # average SwapReq mshr miss latency ((Tick/Count))
testsys.cpu_cluster.cpus0.dcache.SwapReq.avgMshrMissLatency::total  7958.728653                       # average SwapReq mshr miss latency ((Tick/Count))
testsys.cpu_cluster.cpus0.dcache.WriteLineReq.hits::cpu_cluster.cpus0.data           53                       # number of WriteLineReq hits (Count)
testsys.cpu_cluster.cpus0.dcache.WriteLineReq.hits::total           53                       # number of WriteLineReq hits (Count)
testsys.cpu_cluster.cpus0.dcache.WriteLineReq.misses::cpu_cluster.cpus0.data         1228                       # number of WriteLineReq misses (Count)
testsys.cpu_cluster.cpus0.dcache.WriteLineReq.misses::total         1228                       # number of WriteLineReq misses (Count)
testsys.cpu_cluster.cpus0.dcache.WriteLineReq.missLatency::cpu_cluster.cpus0.data     15367250                       # number of WriteLineReq miss ticks (Tick)
testsys.cpu_cluster.cpus0.dcache.WriteLineReq.missLatency::total     15367250                       # number of WriteLineReq miss ticks (Tick)
testsys.cpu_cluster.cpus0.dcache.WriteLineReq.accesses::cpu_cluster.cpus0.data         1281                       # number of WriteLineReq accesses(hits+misses) (Count)
testsys.cpu_cluster.cpus0.dcache.WriteLineReq.accesses::total         1281                       # number of WriteLineReq accesses(hits+misses) (Count)
testsys.cpu_cluster.cpus0.dcache.WriteLineReq.missRate::cpu_cluster.cpus0.data     0.958626                       # miss rate for WriteLineReq accesses (Ratio)
testsys.cpu_cluster.cpus0.dcache.WriteLineReq.missRate::total     0.958626                       # miss rate for WriteLineReq accesses (Ratio)
testsys.cpu_cluster.cpus0.dcache.WriteLineReq.avgMissLatency::cpu_cluster.cpus0.data 12514.047231                       # average WriteLineReq miss latency ((Tick/Count))
testsys.cpu_cluster.cpus0.dcache.WriteLineReq.avgMissLatency::total 12514.047231                       # average WriteLineReq miss latency ((Tick/Count))
testsys.cpu_cluster.cpus0.dcache.WriteLineReq.mshrMisses::cpu_cluster.cpus0.data         1228                       # number of WriteLineReq MSHR misses (Count)
testsys.cpu_cluster.cpus0.dcache.WriteLineReq.mshrMisses::total         1228                       # number of WriteLineReq MSHR misses (Count)
testsys.cpu_cluster.cpus0.dcache.WriteLineReq.mshrMissLatency::cpu_cluster.cpus0.data     15060250                       # number of WriteLineReq MSHR miss ticks (Tick)
testsys.cpu_cluster.cpus0.dcache.WriteLineReq.mshrMissLatency::total     15060250                       # number of WriteLineReq MSHR miss ticks (Tick)
testsys.cpu_cluster.cpus0.dcache.WriteLineReq.mshrMissRate::cpu_cluster.cpus0.data     0.958626                       # mshr miss rate for WriteLineReq accesses (Ratio)
testsys.cpu_cluster.cpus0.dcache.WriteLineReq.mshrMissRate::total     0.958626                       # mshr miss rate for WriteLineReq accesses (Ratio)
testsys.cpu_cluster.cpus0.dcache.WriteLineReq.avgMshrMissLatency::cpu_cluster.cpus0.data 12264.047231                       # average WriteLineReq mshr miss latency ((Tick/Count))
testsys.cpu_cluster.cpus0.dcache.WriteLineReq.avgMshrMissLatency::total 12264.047231                       # average WriteLineReq mshr miss latency ((Tick/Count))
testsys.cpu_cluster.cpus0.dcache.WriteReq.hits::cpu_cluster.cpus0.data       655810                       # number of WriteReq hits (Count)
testsys.cpu_cluster.cpus0.dcache.WriteReq.hits::total       655810                       # number of WriteReq hits (Count)
testsys.cpu_cluster.cpus0.dcache.WriteReq.misses::cpu_cluster.cpus0.data         1989                       # number of WriteReq misses (Count)
testsys.cpu_cluster.cpus0.dcache.WriteReq.misses::total         1989                       # number of WriteReq misses (Count)
testsys.cpu_cluster.cpus0.dcache.WriteReq.missLatency::cpu_cluster.cpus0.data     30219500                       # number of WriteReq miss ticks (Tick)
testsys.cpu_cluster.cpus0.dcache.WriteReq.missLatency::total     30219500                       # number of WriteReq miss ticks (Tick)
testsys.cpu_cluster.cpus0.dcache.WriteReq.accesses::cpu_cluster.cpus0.data       657799                       # number of WriteReq accesses(hits+misses) (Count)
testsys.cpu_cluster.cpus0.dcache.WriteReq.accesses::total       657799                       # number of WriteReq accesses(hits+misses) (Count)
testsys.cpu_cluster.cpus0.dcache.WriteReq.missRate::cpu_cluster.cpus0.data     0.003024                       # miss rate for WriteReq accesses (Ratio)
testsys.cpu_cluster.cpus0.dcache.WriteReq.missRate::total     0.003024                       # miss rate for WriteReq accesses (Ratio)
testsys.cpu_cluster.cpus0.dcache.WriteReq.avgMissLatency::cpu_cluster.cpus0.data 15193.313223                       # average WriteReq miss latency ((Tick/Count))
testsys.cpu_cluster.cpus0.dcache.WriteReq.avgMissLatency::total 15193.313223                       # average WriteReq miss latency ((Tick/Count))
testsys.cpu_cluster.cpus0.dcache.WriteReq.mshrHits::cpu_cluster.cpus0.data            2                       # number of WriteReq MSHR hits (Count)
testsys.cpu_cluster.cpus0.dcache.WriteReq.mshrHits::total            2                       # number of WriteReq MSHR hits (Count)
testsys.cpu_cluster.cpus0.dcache.WriteReq.mshrMisses::cpu_cluster.cpus0.data         1987                       # number of WriteReq MSHR misses (Count)
testsys.cpu_cluster.cpus0.dcache.WriteReq.mshrMisses::total         1987                       # number of WriteReq MSHR misses (Count)
testsys.cpu_cluster.cpus0.dcache.WriteReq.mshrUncacheable::cpu_cluster.cpus0.data           60                       # number of WriteReq MSHR uncacheable (Count)
testsys.cpu_cluster.cpus0.dcache.WriteReq.mshrUncacheable::total           60                       # number of WriteReq MSHR uncacheable (Count)
testsys.cpu_cluster.cpus0.dcache.WriteReq.mshrMissLatency::cpu_cluster.cpus0.data     29594500                       # number of WriteReq MSHR miss ticks (Tick)
testsys.cpu_cluster.cpus0.dcache.WriteReq.mshrMissLatency::total     29594500                       # number of WriteReq MSHR miss ticks (Tick)
testsys.cpu_cluster.cpus0.dcache.WriteReq.mshrMissRate::cpu_cluster.cpus0.data     0.003021                       # mshr miss rate for WriteReq accesses (Ratio)
testsys.cpu_cluster.cpus0.dcache.WriteReq.mshrMissRate::total     0.003021                       # mshr miss rate for WriteReq accesses (Ratio)
testsys.cpu_cluster.cpus0.dcache.WriteReq.avgMshrMissLatency::cpu_cluster.cpus0.data 14894.061399                       # average WriteReq mshr miss latency ((Tick/Count))
testsys.cpu_cluster.cpus0.dcache.WriteReq.avgMshrMissLatency::total 14894.061399                       # average WriteReq mshr miss latency ((Tick/Count))
testsys.cpu_cluster.cpus0.dcache.power_state.pwrStateResidencyTicks::UNDEFINED 1289968970750                       # Cumulative time (in ticks) in various power states (Tick)
testsys.cpu_cluster.cpus0.dcache.tags.tagsInUse   476.037356                       # Average ticks per tags in use ((Tick/Count))
testsys.cpu_cluster.cpus0.dcache.tags.totalRefs      1431086                       # Total number of references to valid blocks. (Count)
testsys.cpu_cluster.cpus0.dcache.tags.sampledRefs         9833                       # Sample count of references to valid blocks. (Count)
testsys.cpu_cluster.cpus0.dcache.tags.avgRefs   145.539103                       # Average number of references to valid blocks. ((Count/Count))
testsys.cpu_cluster.cpus0.dcache.tags.warmupTick            0                       # The tick when the warmup percentage was hit. (Tick)
testsys.cpu_cluster.cpus0.dcache.tags.occupancies::cpu_cluster.cpus0.data   476.037356                       # Average occupied blocks per tick, per requestor ((Count/Tick))
testsys.cpu_cluster.cpus0.dcache.tags.avgOccs::cpu_cluster.cpus0.data     0.929760                       # Average percentage of cache occupancy ((Ratio/Tick))
testsys.cpu_cluster.cpus0.dcache.tags.avgOccs::total     0.929760                       # Average percentage of cache occupancy ((Ratio/Tick))
testsys.cpu_cluster.cpus0.dcache.tags.occupanciesTaskId::1024          512                       # Occupied blocks per task id (Count)
testsys.cpu_cluster.cpus0.dcache.tags.ageTaskId_1024::0          107                       # Occupied blocks per task id, per block age (Count)
testsys.cpu_cluster.cpus0.dcache.tags.ageTaskId_1024::1          268                       # Occupied blocks per task id, per block age (Count)
testsys.cpu_cluster.cpus0.dcache.tags.ageTaskId_1024::2          137                       # Occupied blocks per task id, per block age (Count)
testsys.cpu_cluster.cpus0.dcache.tags.ratioOccsTaskId::1024            1                       # Ratio of occupied blocks and all blocks, per task id (Ratio)
testsys.cpu_cluster.cpus0.dcache.tags.tagAccesses      2877864                       # Number of tag accesses (Count)
testsys.cpu_cluster.cpus0.dcache.tags.dataAccesses      2877864                       # Number of data accesses (Count)
testsys.cpu_cluster.cpus0.dcache.tags.power_state.pwrStateResidencyTicks::UNDEFINED 1289968970750                       # Cumulative time (in ticks) in various power states (Tick)
testsys.cpu_cluster.cpus0.dtb_walker_cache.demandHits::cpu_cluster.cpus0.mmu.dtb_walker         3326                       # number of demand (read+write) hits (Count)
testsys.cpu_cluster.cpus0.dtb_walker_cache.demandHits::total         3326                       # number of demand (read+write) hits (Count)
testsys.cpu_cluster.cpus0.dtb_walker_cache.overallHits::cpu_cluster.cpus0.mmu.dtb_walker         3326                       # number of overall hits (Count)
testsys.cpu_cluster.cpus0.dtb_walker_cache.overallHits::total         3326                       # number of overall hits (Count)
testsys.cpu_cluster.cpus0.dtb_walker_cache.demandMisses::cpu_cluster.cpus0.mmu.dtb_walker         1489                       # number of demand (read+write) misses (Count)
testsys.cpu_cluster.cpus0.dtb_walker_cache.demandMisses::total         1489                       # number of demand (read+write) misses (Count)
testsys.cpu_cluster.cpus0.dtb_walker_cache.overallMisses::cpu_cluster.cpus0.mmu.dtb_walker         1489                       # number of overall misses (Count)
testsys.cpu_cluster.cpus0.dtb_walker_cache.overallMisses::total         1489                       # number of overall misses (Count)
testsys.cpu_cluster.cpus0.dtb_walker_cache.demandMissLatency::cpu_cluster.cpus0.mmu.dtb_walker     58059761                       # number of demand (read+write) miss ticks (Tick)
testsys.cpu_cluster.cpus0.dtb_walker_cache.demandMissLatency::total     58059761                       # number of demand (read+write) miss ticks (Tick)
testsys.cpu_cluster.cpus0.dtb_walker_cache.overallMissLatency::cpu_cluster.cpus0.mmu.dtb_walker     58059761                       # number of overall miss ticks (Tick)
testsys.cpu_cluster.cpus0.dtb_walker_cache.overallMissLatency::total     58059761                       # number of overall miss ticks (Tick)
testsys.cpu_cluster.cpus0.dtb_walker_cache.demandAccesses::cpu_cluster.cpus0.mmu.dtb_walker         4815                       # number of demand (read+write) accesses (Count)
testsys.cpu_cluster.cpus0.dtb_walker_cache.demandAccesses::total         4815                       # number of demand (read+write) accesses (Count)
testsys.cpu_cluster.cpus0.dtb_walker_cache.overallAccesses::cpu_cluster.cpus0.mmu.dtb_walker         4815                       # number of overall (read+write) accesses (Count)
testsys.cpu_cluster.cpus0.dtb_walker_cache.overallAccesses::total         4815                       # number of overall (read+write) accesses (Count)
testsys.cpu_cluster.cpus0.dtb_walker_cache.demandMissRate::cpu_cluster.cpus0.mmu.dtb_walker     0.309242                       # miss rate for demand accesses (Ratio)
testsys.cpu_cluster.cpus0.dtb_walker_cache.demandMissRate::total     0.309242                       # miss rate for demand accesses (Ratio)
testsys.cpu_cluster.cpus0.dtb_walker_cache.overallMissRate::cpu_cluster.cpus0.mmu.dtb_walker     0.309242                       # miss rate for overall accesses (Ratio)
testsys.cpu_cluster.cpus0.dtb_walker_cache.overallMissRate::total     0.309242                       # miss rate for overall accesses (Ratio)
testsys.cpu_cluster.cpus0.dtb_walker_cache.demandAvgMissLatency::cpu_cluster.cpus0.mmu.dtb_walker 38992.451981                       # average overall miss latency ((Cycle/Count))
testsys.cpu_cluster.cpus0.dtb_walker_cache.demandAvgMissLatency::total 38992.451981                       # average overall miss latency ((Cycle/Count))
testsys.cpu_cluster.cpus0.dtb_walker_cache.overallAvgMissLatency::cpu_cluster.cpus0.mmu.dtb_walker 38992.451981                       # average overall miss latency ((Cycle/Count))
testsys.cpu_cluster.cpus0.dtb_walker_cache.overallAvgMissLatency::total 38992.451981                       # average overall miss latency ((Cycle/Count))
testsys.cpu_cluster.cpus0.dtb_walker_cache.blockedCycles::no_mshrs            0                       # number of cycles access was blocked (Cycle)
testsys.cpu_cluster.cpus0.dtb_walker_cache.blockedCycles::no_targets            0                       # number of cycles access was blocked (Cycle)
testsys.cpu_cluster.cpus0.dtb_walker_cache.blockedCauses::no_mshrs            0                       # number of times access was blocked (Count)
testsys.cpu_cluster.cpus0.dtb_walker_cache.blockedCauses::no_targets            0                       # number of times access was blocked (Count)
testsys.cpu_cluster.cpus0.dtb_walker_cache.avgBlocked::no_mshrs          nan                       # average number of cycles each access was blocked ((Cycle/Count))
testsys.cpu_cluster.cpus0.dtb_walker_cache.avgBlocked::no_targets          nan                       # average number of cycles each access was blocked ((Cycle/Count))
testsys.cpu_cluster.cpus0.dtb_walker_cache.writebacks::writebacks         1450                       # number of writebacks (Count)
testsys.cpu_cluster.cpus0.dtb_walker_cache.writebacks::total         1450                       # number of writebacks (Count)
testsys.cpu_cluster.cpus0.dtb_walker_cache.demandMshrMisses::cpu_cluster.cpus0.mmu.dtb_walker         1489                       # number of demand (read+write) MSHR misses (Count)
testsys.cpu_cluster.cpus0.dtb_walker_cache.demandMshrMisses::total         1489                       # number of demand (read+write) MSHR misses (Count)
testsys.cpu_cluster.cpus0.dtb_walker_cache.overallMshrMisses::cpu_cluster.cpus0.mmu.dtb_walker         1489                       # number of overall MSHR misses (Count)
testsys.cpu_cluster.cpus0.dtb_walker_cache.overallMshrMisses::total         1489                       # number of overall MSHR misses (Count)
testsys.cpu_cluster.cpus0.dtb_walker_cache.demandMshrMissLatency::cpu_cluster.cpus0.mmu.dtb_walker     56570761                       # number of demand (read+write) MSHR miss ticks (Tick)
testsys.cpu_cluster.cpus0.dtb_walker_cache.demandMshrMissLatency::total     56570761                       # number of demand (read+write) MSHR miss ticks (Tick)
testsys.cpu_cluster.cpus0.dtb_walker_cache.overallMshrMissLatency::cpu_cluster.cpus0.mmu.dtb_walker     56570761                       # number of overall MSHR miss ticks (Tick)
testsys.cpu_cluster.cpus0.dtb_walker_cache.overallMshrMissLatency::total     56570761                       # number of overall MSHR miss ticks (Tick)
testsys.cpu_cluster.cpus0.dtb_walker_cache.demandMshrMissRate::cpu_cluster.cpus0.mmu.dtb_walker     0.309242                       # mshr miss ratio for demand accesses (Ratio)
testsys.cpu_cluster.cpus0.dtb_walker_cache.demandMshrMissRate::total     0.309242                       # mshr miss ratio for demand accesses (Ratio)
testsys.cpu_cluster.cpus0.dtb_walker_cache.overallMshrMissRate::cpu_cluster.cpus0.mmu.dtb_walker     0.309242                       # mshr miss ratio for overall accesses (Ratio)
testsys.cpu_cluster.cpus0.dtb_walker_cache.overallMshrMissRate::total     0.309242                       # mshr miss ratio for overall accesses (Ratio)
testsys.cpu_cluster.cpus0.dtb_walker_cache.demandAvgMshrMissLatency::cpu_cluster.cpus0.mmu.dtb_walker 37992.451981                       # average overall mshr miss latency ((Cycle/Count))
testsys.cpu_cluster.cpus0.dtb_walker_cache.demandAvgMshrMissLatency::total 37992.451981                       # average overall mshr miss latency ((Cycle/Count))
testsys.cpu_cluster.cpus0.dtb_walker_cache.overallAvgMshrMissLatency::cpu_cluster.cpus0.mmu.dtb_walker 37992.451981                       # average overall mshr miss latency ((Cycle/Count))
testsys.cpu_cluster.cpus0.dtb_walker_cache.overallAvgMshrMissLatency::total 37992.451981                       # average overall mshr miss latency ((Cycle/Count))
testsys.cpu_cluster.cpus0.dtb_walker_cache.replacements         1450                       # number of replacements (Count)
testsys.cpu_cluster.cpus0.dtb_walker_cache.ReadReq.hits::cpu_cluster.cpus0.mmu.dtb_walker         3326                       # number of ReadReq hits (Count)
testsys.cpu_cluster.cpus0.dtb_walker_cache.ReadReq.hits::total         3326                       # number of ReadReq hits (Count)
testsys.cpu_cluster.cpus0.dtb_walker_cache.ReadReq.misses::cpu_cluster.cpus0.mmu.dtb_walker         1489                       # number of ReadReq misses (Count)
testsys.cpu_cluster.cpus0.dtb_walker_cache.ReadReq.misses::total         1489                       # number of ReadReq misses (Count)
testsys.cpu_cluster.cpus0.dtb_walker_cache.ReadReq.missLatency::cpu_cluster.cpus0.mmu.dtb_walker     58059761                       # number of ReadReq miss ticks (Tick)
testsys.cpu_cluster.cpus0.dtb_walker_cache.ReadReq.missLatency::total     58059761                       # number of ReadReq miss ticks (Tick)
testsys.cpu_cluster.cpus0.dtb_walker_cache.ReadReq.accesses::cpu_cluster.cpus0.mmu.dtb_walker         4815                       # number of ReadReq accesses(hits+misses) (Count)
testsys.cpu_cluster.cpus0.dtb_walker_cache.ReadReq.accesses::total         4815                       # number of ReadReq accesses(hits+misses) (Count)
testsys.cpu_cluster.cpus0.dtb_walker_cache.ReadReq.missRate::cpu_cluster.cpus0.mmu.dtb_walker     0.309242                       # miss rate for ReadReq accesses (Ratio)
testsys.cpu_cluster.cpus0.dtb_walker_cache.ReadReq.missRate::total     0.309242                       # miss rate for ReadReq accesses (Ratio)
testsys.cpu_cluster.cpus0.dtb_walker_cache.ReadReq.avgMissLatency::cpu_cluster.cpus0.mmu.dtb_walker 38992.451981                       # average ReadReq miss latency ((Tick/Count))
testsys.cpu_cluster.cpus0.dtb_walker_cache.ReadReq.avgMissLatency::total 38992.451981                       # average ReadReq miss latency ((Tick/Count))
testsys.cpu_cluster.cpus0.dtb_walker_cache.ReadReq.mshrMisses::cpu_cluster.cpus0.mmu.dtb_walker         1489                       # number of ReadReq MSHR misses (Count)
testsys.cpu_cluster.cpus0.dtb_walker_cache.ReadReq.mshrMisses::total         1489                       # number of ReadReq MSHR misses (Count)
testsys.cpu_cluster.cpus0.dtb_walker_cache.ReadReq.mshrMissLatency::cpu_cluster.cpus0.mmu.dtb_walker     56570761                       # number of ReadReq MSHR miss ticks (Tick)
testsys.cpu_cluster.cpus0.dtb_walker_cache.ReadReq.mshrMissLatency::total     56570761                       # number of ReadReq MSHR miss ticks (Tick)
testsys.cpu_cluster.cpus0.dtb_walker_cache.ReadReq.mshrMissRate::cpu_cluster.cpus0.mmu.dtb_walker     0.309242                       # mshr miss rate for ReadReq accesses (Ratio)
testsys.cpu_cluster.cpus0.dtb_walker_cache.ReadReq.mshrMissRate::total     0.309242                       # mshr miss rate for ReadReq accesses (Ratio)
testsys.cpu_cluster.cpus0.dtb_walker_cache.ReadReq.avgMshrMissLatency::cpu_cluster.cpus0.mmu.dtb_walker 37992.451981                       # average ReadReq mshr miss latency ((Tick/Count))
testsys.cpu_cluster.cpus0.dtb_walker_cache.ReadReq.avgMshrMissLatency::total 37992.451981                       # average ReadReq mshr miss latency ((Tick/Count))
testsys.cpu_cluster.cpus0.dtb_walker_cache.power_state.pwrStateResidencyTicks::UNDEFINED 1289968970750                       # Cumulative time (in ticks) in various power states (Tick)
testsys.cpu_cluster.cpus0.dtb_walker_cache.tags.tagsInUse    15.999972                       # Average ticks per tags in use ((Tick/Count))
testsys.cpu_cluster.cpus0.dtb_walker_cache.tags.totalRefs         4895                       # Total number of references to valid blocks. (Count)
testsys.cpu_cluster.cpus0.dtb_walker_cache.tags.sampledRefs         1489                       # Sample count of references to valid blocks. (Count)
testsys.cpu_cluster.cpus0.dtb_walker_cache.tags.avgRefs     3.287441                       # Average number of references to valid blocks. ((Count/Count))
testsys.cpu_cluster.cpus0.dtb_walker_cache.tags.warmupTick            0                       # The tick when the warmup percentage was hit. (Tick)
testsys.cpu_cluster.cpus0.dtb_walker_cache.tags.occupancies::cpu_cluster.cpus0.mmu.dtb_walker    15.999972                       # Average occupied blocks per tick, per requestor ((Count/Tick))
testsys.cpu_cluster.cpus0.dtb_walker_cache.tags.avgOccs::cpu_cluster.cpus0.mmu.dtb_walker     0.999998                       # Average percentage of cache occupancy ((Ratio/Tick))
testsys.cpu_cluster.cpus0.dtb_walker_cache.tags.avgOccs::total     0.999998                       # Average percentage of cache occupancy ((Ratio/Tick))
testsys.cpu_cluster.cpus0.dtb_walker_cache.tags.occupanciesTaskId::1023           16                       # Occupied blocks per task id (Count)
testsys.cpu_cluster.cpus0.dtb_walker_cache.tags.ageTaskId_1023::0            1                       # Occupied blocks per task id, per block age (Count)
testsys.cpu_cluster.cpus0.dtb_walker_cache.tags.ageTaskId_1023::1            8                       # Occupied blocks per task id, per block age (Count)
testsys.cpu_cluster.cpus0.dtb_walker_cache.tags.ageTaskId_1023::2            7                       # Occupied blocks per task id, per block age (Count)
testsys.cpu_cluster.cpus0.dtb_walker_cache.tags.ratioOccsTaskId::1023            1                       # Ratio of occupied blocks and all blocks, per task id (Ratio)
testsys.cpu_cluster.cpus0.dtb_walker_cache.tags.tagAccesses        40009                       # Number of tag accesses (Count)
testsys.cpu_cluster.cpus0.dtb_walker_cache.tags.dataAccesses        40009                       # Number of data accesses (Count)
testsys.cpu_cluster.cpus0.dtb_walker_cache.tags.power_state.pwrStateResidencyTicks::UNDEFINED 1289968970750                       # Cumulative time (in ticks) in various power states (Tick)
testsys.cpu_cluster.cpus0.exec_context.thread_0.numInsts      5948322                       # Number of instructions committed (Count)
testsys.cpu_cluster.cpus0.exec_context.thread_0.numOps      6659593                       # Number of ops (including micro ops) committed (Count)
testsys.cpu_cluster.cpus0.exec_context.thread_0.numIntAluAccesses      5964450                       # Number of integer alu accesses (Count)
testsys.cpu_cluster.cpus0.exec_context.thread_0.numFpAluAccesses            0                       # Number of float alu accesses (Count)
testsys.cpu_cluster.cpus0.exec_context.thread_0.numVecAluAccesses          262                       # Number of vector alu accesses (Count)
testsys.cpu_cluster.cpus0.exec_context.thread_0.numCallsReturns       466152                       # Number of times a function call or return occured (Count)
testsys.cpu_cluster.cpus0.exec_context.thread_0.numCondCtrlInsts       744111                       # Number of instructions that are conditional controls (Count)
testsys.cpu_cluster.cpus0.exec_context.thread_0.numIntInsts      5964450                       # Number of integer instructions (Count)
testsys.cpu_cluster.cpus0.exec_context.thread_0.numFpInsts            0                       # Number of float instructions (Count)
testsys.cpu_cluster.cpus0.exec_context.thread_0.numVecInsts          262                       # Number of vector instructions (Count)
testsys.cpu_cluster.cpus0.exec_context.thread_0.numIntRegReads      8343588                       # Number of times the integer registers were read (Count)
testsys.cpu_cluster.cpus0.exec_context.thread_0.numIntRegWrites      5043402                       # Number of times the integer registers were written (Count)
testsys.cpu_cluster.cpus0.exec_context.thread_0.numFpRegReads            0                       # Number of times the floating registers were read (Count)
testsys.cpu_cluster.cpus0.exec_context.thread_0.numFpRegWrites            0                       # Number of times the floating registers were written (Count)
testsys.cpu_cluster.cpus0.exec_context.thread_0.numVecRegReads          192                       # Number of times the vector registers were read (Count)
testsys.cpu_cluster.cpus0.exec_context.thread_0.numVecRegWrites           98                       # Number of times the vector registers were written (Count)
testsys.cpu_cluster.cpus0.exec_context.thread_0.numVecPredRegReads            0                       # Number of times the predicate registers were read (Count)
testsys.cpu_cluster.cpus0.exec_context.thread_0.numVecPredRegWrites            0                       # Number of times the predicate registers were written (Count)
testsys.cpu_cluster.cpus0.exec_context.thread_0.numCCRegReads      1806131                       # Number of times the CC registers were read (Count)
testsys.cpu_cluster.cpus0.exec_context.thread_0.numCCRegWrites      1788681                       # Number of times the CC registers were written (Count)
testsys.cpu_cluster.cpus0.exec_context.thread_0.numMemRefs      1433924                       # Number of memory refs (Count)
testsys.cpu_cluster.cpus0.exec_context.thread_0.numLoadInsts       750980                       # Number of load instructions (Count)
testsys.cpu_cluster.cpus0.exec_context.thread_0.numStoreInsts       682944                       # Number of store instructions (Count)
testsys.cpu_cluster.cpus0.exec_context.thread_0.numIdleCycles 3188595667.635966                       # Number of idle cycles (Cycle)
testsys.cpu_cluster.cpus0.exec_context.thread_0.numBusyCycles 11991027.364033                       # Number of busy cycles (Cycle)
testsys.cpu_cluster.cpus0.exec_context.thread_0.notIdleFraction     0.003747                       # Percentage of non-idle cycles (Ratio)
testsys.cpu_cluster.cpus0.exec_context.thread_0.idleFraction     0.996253                       # Percentage of idle cycles (Ratio)
testsys.cpu_cluster.cpus0.exec_context.thread_0.numBranches      1290026                       # Number of branches fetched (Count)
testsys.cpu_cluster.cpus0.exec_context.thread_0.statExecutedInstType::No_OpClass          137      0.00%      0.00% # Class of executed instruction. (Count)
testsys.cpu_cluster.cpus0.exec_context.thread_0.statExecutedInstType::IntAlu      5215721     78.32%     78.32% # Class of executed instruction. (Count)
testsys.cpu_cluster.cpus0.exec_context.thread_0.statExecutedInstType::IntMult         8672      0.13%     78.45% # Class of executed instruction. (Count)
testsys.cpu_cluster.cpus0.exec_context.thread_0.statExecutedInstType::IntDiv         1167      0.02%     78.47% # Class of executed instruction. (Count)
testsys.cpu_cluster.cpus0.exec_context.thread_0.statExecutedInstType::FloatAdd            0      0.00%     78.47% # Class of executed instruction. (Count)
testsys.cpu_cluster.cpus0.exec_context.thread_0.statExecutedInstType::FloatCmp            0      0.00%     78.47% # Class of executed instruction. (Count)
testsys.cpu_cluster.cpus0.exec_context.thread_0.statExecutedInstType::FloatCvt            0      0.00%     78.47% # Class of executed instruction. (Count)
testsys.cpu_cluster.cpus0.exec_context.thread_0.statExecutedInstType::FloatMult            0      0.00%     78.47% # Class of executed instruction. (Count)
testsys.cpu_cluster.cpus0.exec_context.thread_0.statExecutedInstType::FloatMultAcc            0      0.00%     78.47% # Class of executed instruction. (Count)
testsys.cpu_cluster.cpus0.exec_context.thread_0.statExecutedInstType::FloatDiv            0      0.00%     78.47% # Class of executed instruction. (Count)
testsys.cpu_cluster.cpus0.exec_context.thread_0.statExecutedInstType::FloatMisc           12      0.00%     78.47% # Class of executed instruction. (Count)
testsys.cpu_cluster.cpus0.exec_context.thread_0.statExecutedInstType::FloatSqrt            0      0.00%     78.47% # Class of executed instruction. (Count)
testsys.cpu_cluster.cpus0.exec_context.thread_0.statExecutedInstType::SimdAdd            5      0.00%     78.47% # Class of executed instruction. (Count)
testsys.cpu_cluster.cpus0.exec_context.thread_0.statExecutedInstType::SimdAddAcc            0      0.00%     78.47% # Class of executed instruction. (Count)
testsys.cpu_cluster.cpus0.exec_context.thread_0.statExecutedInstType::SimdAlu            4      0.00%     78.47% # Class of executed instruction. (Count)
testsys.cpu_cluster.cpus0.exec_context.thread_0.statExecutedInstType::SimdCmp            4      0.00%     78.47% # Class of executed instruction. (Count)
testsys.cpu_cluster.cpus0.exec_context.thread_0.statExecutedInstType::SimdCvt            0      0.00%     78.47% # Class of executed instruction. (Count)
testsys.cpu_cluster.cpus0.exec_context.thread_0.statExecutedInstType::SimdMisc            8      0.00%     78.47% # Class of executed instruction. (Count)
testsys.cpu_cluster.cpus0.exec_context.thread_0.statExecutedInstType::SimdMult            0      0.00%     78.47% # Class of executed instruction. (Count)
testsys.cpu_cluster.cpus0.exec_context.thread_0.statExecutedInstType::SimdMultAcc            0      0.00%     78.47% # Class of executed instruction. (Count)
testsys.cpu_cluster.cpus0.exec_context.thread_0.statExecutedInstType::SimdShift            0      0.00%     78.47% # Class of executed instruction. (Count)
testsys.cpu_cluster.cpus0.exec_context.thread_0.statExecutedInstType::SimdShiftAcc            0      0.00%     78.47% # Class of executed instruction. (Count)
testsys.cpu_cluster.cpus0.exec_context.thread_0.statExecutedInstType::SimdDiv            0      0.00%     78.47% # Class of executed instruction. (Count)
testsys.cpu_cluster.cpus0.exec_context.thread_0.statExecutedInstType::SimdSqrt            0      0.00%     78.47% # Class of executed instruction. (Count)
testsys.cpu_cluster.cpus0.exec_context.thread_0.statExecutedInstType::SimdFloatAdd            0      0.00%     78.47% # Class of executed instruction. (Count)
testsys.cpu_cluster.cpus0.exec_context.thread_0.statExecutedInstType::SimdFloatAlu            0      0.00%     78.47% # Class of executed instruction. (Count)
testsys.cpu_cluster.cpus0.exec_context.thread_0.statExecutedInstType::SimdFloatCmp            0      0.00%     78.47% # Class of executed instruction. (Count)
testsys.cpu_cluster.cpus0.exec_context.thread_0.statExecutedInstType::SimdFloatCvt            0      0.00%     78.47% # Class of executed instruction. (Count)
testsys.cpu_cluster.cpus0.exec_context.thread_0.statExecutedInstType::SimdFloatDiv            0      0.00%     78.47% # Class of executed instruction. (Count)
testsys.cpu_cluster.cpus0.exec_context.thread_0.statExecutedInstType::SimdFloatMisc            0      0.00%     78.47% # Class of executed instruction. (Count)
testsys.cpu_cluster.cpus0.exec_context.thread_0.statExecutedInstType::SimdFloatMult            0      0.00%     78.47% # Class of executed instruction. (Count)
testsys.cpu_cluster.cpus0.exec_context.thread_0.statExecutedInstType::SimdFloatMultAcc            0      0.00%     78.47% # Class of executed instruction. (Count)
testsys.cpu_cluster.cpus0.exec_context.thread_0.statExecutedInstType::SimdFloatSqrt            0      0.00%     78.47% # Class of executed instruction. (Count)
testsys.cpu_cluster.cpus0.exec_context.thread_0.statExecutedInstType::SimdReduceAdd            0      0.00%     78.47% # Class of executed instruction. (Count)
testsys.cpu_cluster.cpus0.exec_context.thread_0.statExecutedInstType::SimdReduceAlu            0      0.00%     78.47% # Class of executed instruction. (Count)
testsys.cpu_cluster.cpus0.exec_context.thread_0.statExecutedInstType::SimdReduceCmp            0      0.00%     78.47% # Class of executed instruction. (Count)
testsys.cpu_cluster.cpus0.exec_context.thread_0.statExecutedInstType::SimdFloatReduceAdd            0      0.00%     78.47% # Class of executed instruction. (Count)
testsys.cpu_cluster.cpus0.exec_context.thread_0.statExecutedInstType::SimdFloatReduceCmp            0      0.00%     78.47% # Class of executed instruction. (Count)
testsys.cpu_cluster.cpus0.exec_context.thread_0.statExecutedInstType::SimdAes            0      0.00%     78.47% # Class of executed instruction. (Count)
testsys.cpu_cluster.cpus0.exec_context.thread_0.statExecutedInstType::SimdAesMix            0      0.00%     78.47% # Class of executed instruction. (Count)
testsys.cpu_cluster.cpus0.exec_context.thread_0.statExecutedInstType::SimdSha1Hash            0      0.00%     78.47% # Class of executed instruction. (Count)
testsys.cpu_cluster.cpus0.exec_context.thread_0.statExecutedInstType::SimdSha1Hash2            0      0.00%     78.47% # Class of executed instruction. (Count)
testsys.cpu_cluster.cpus0.exec_context.thread_0.statExecutedInstType::SimdSha256Hash            0      0.00%     78.47% # Class of executed instruction. (Count)
testsys.cpu_cluster.cpus0.exec_context.thread_0.statExecutedInstType::SimdSha256Hash2            0      0.00%     78.47% # Class of executed instruction. (Count)
testsys.cpu_cluster.cpus0.exec_context.thread_0.statExecutedInstType::SimdShaSigma2            0      0.00%     78.47% # Class of executed instruction. (Count)
testsys.cpu_cluster.cpus0.exec_context.thread_0.statExecutedInstType::SimdShaSigma3            0      0.00%     78.47% # Class of executed instruction. (Count)
testsys.cpu_cluster.cpus0.exec_context.thread_0.statExecutedInstType::SimdPredAlu            0      0.00%     78.47% # Class of executed instruction. (Count)
testsys.cpu_cluster.cpus0.exec_context.thread_0.statExecutedInstType::MemRead       750980     11.28%     89.75% # Class of executed instruction. (Count)
testsys.cpu_cluster.cpus0.exec_context.thread_0.statExecutedInstType::MemWrite       682944     10.25%    100.00% # Class of executed instruction. (Count)
testsys.cpu_cluster.cpus0.exec_context.thread_0.statExecutedInstType::FloatMemRead            0      0.00%    100.00% # Class of executed instruction. (Count)
testsys.cpu_cluster.cpus0.exec_context.thread_0.statExecutedInstType::FloatMemWrite            0      0.00%    100.00% # Class of executed instruction. (Count)
testsys.cpu_cluster.cpus0.exec_context.thread_0.statExecutedInstType::IprAccess            0      0.00%    100.00% # Class of executed instruction. (Count)
testsys.cpu_cluster.cpus0.exec_context.thread_0.statExecutedInstType::InstPrefetch            0      0.00%    100.00% # Class of executed instruction. (Count)
testsys.cpu_cluster.cpus0.exec_context.thread_0.statExecutedInstType::total      6659654                       # Class of executed instruction. (Count)
testsys.cpu_cluster.cpus0.icache.demandHits::cpu_cluster.cpus0.inst      5937683                       # number of demand (read+write) hits (Count)
testsys.cpu_cluster.cpus0.icache.demandHits::total      5937683                       # number of demand (read+write) hits (Count)
testsys.cpu_cluster.cpus0.icache.overallHits::cpu_cluster.cpus0.inst      5937683                       # number of overall hits (Count)
testsys.cpu_cluster.cpus0.icache.overallHits::total      5937683                       # number of overall hits (Count)
testsys.cpu_cluster.cpus0.icache.demandMisses::cpu_cluster.cpus0.inst        10701                       # number of demand (read+write) misses (Count)
testsys.cpu_cluster.cpus0.icache.demandMisses::total        10701                       # number of demand (read+write) misses (Count)
testsys.cpu_cluster.cpus0.icache.overallMisses::cpu_cluster.cpus0.inst        10701                       # number of overall misses (Count)
testsys.cpu_cluster.cpus0.icache.overallMisses::total        10701                       # number of overall misses (Count)
testsys.cpu_cluster.cpus0.icache.demandMissLatency::cpu_cluster.cpus0.inst    463974000                       # number of demand (read+write) miss ticks (Tick)
testsys.cpu_cluster.cpus0.icache.demandMissLatency::total    463974000                       # number of demand (read+write) miss ticks (Tick)
testsys.cpu_cluster.cpus0.icache.overallMissLatency::cpu_cluster.cpus0.inst    463974000                       # number of overall miss ticks (Tick)
testsys.cpu_cluster.cpus0.icache.overallMissLatency::total    463974000                       # number of overall miss ticks (Tick)
testsys.cpu_cluster.cpus0.icache.demandAccesses::cpu_cluster.cpus0.inst      5948384                       # number of demand (read+write) accesses (Count)
testsys.cpu_cluster.cpus0.icache.demandAccesses::total      5948384                       # number of demand (read+write) accesses (Count)
testsys.cpu_cluster.cpus0.icache.overallAccesses::cpu_cluster.cpus0.inst      5948384                       # number of overall (read+write) accesses (Count)
testsys.cpu_cluster.cpus0.icache.overallAccesses::total      5948384                       # number of overall (read+write) accesses (Count)
testsys.cpu_cluster.cpus0.icache.demandMissRate::cpu_cluster.cpus0.inst     0.001799                       # miss rate for demand accesses (Ratio)
testsys.cpu_cluster.cpus0.icache.demandMissRate::total     0.001799                       # miss rate for demand accesses (Ratio)
testsys.cpu_cluster.cpus0.icache.overallMissRate::cpu_cluster.cpus0.inst     0.001799                       # miss rate for overall accesses (Ratio)
testsys.cpu_cluster.cpus0.icache.overallMissRate::total     0.001799                       # miss rate for overall accesses (Ratio)
testsys.cpu_cluster.cpus0.icache.demandAvgMissLatency::cpu_cluster.cpus0.inst 43358.003925                       # average overall miss latency ((Cycle/Count))
testsys.cpu_cluster.cpus0.icache.demandAvgMissLatency::total 43358.003925                       # average overall miss latency ((Cycle/Count))
testsys.cpu_cluster.cpus0.icache.overallAvgMissLatency::cpu_cluster.cpus0.inst 43358.003925                       # average overall miss latency ((Cycle/Count))
testsys.cpu_cluster.cpus0.icache.overallAvgMissLatency::total 43358.003925                       # average overall miss latency ((Cycle/Count))
testsys.cpu_cluster.cpus0.icache.blockedCycles::no_mshrs            0                       # number of cycles access was blocked (Cycle)
testsys.cpu_cluster.cpus0.icache.blockedCycles::no_targets            0                       # number of cycles access was blocked (Cycle)
testsys.cpu_cluster.cpus0.icache.blockedCauses::no_mshrs            0                       # number of times access was blocked (Count)
testsys.cpu_cluster.cpus0.icache.blockedCauses::no_targets            0                       # number of times access was blocked (Count)
testsys.cpu_cluster.cpus0.icache.avgBlocked::no_mshrs          nan                       # average number of cycles each access was blocked ((Cycle/Count))
testsys.cpu_cluster.cpus0.icache.avgBlocked::no_targets          nan                       # average number of cycles each access was blocked ((Cycle/Count))
testsys.cpu_cluster.cpus0.icache.writebacks::writebacks        10594                       # number of writebacks (Count)
testsys.cpu_cluster.cpus0.icache.writebacks::total        10594                       # number of writebacks (Count)
testsys.cpu_cluster.cpus0.icache.demandMshrMisses::cpu_cluster.cpus0.inst        10701                       # number of demand (read+write) MSHR misses (Count)
testsys.cpu_cluster.cpus0.icache.demandMshrMisses::total        10701                       # number of demand (read+write) MSHR misses (Count)
testsys.cpu_cluster.cpus0.icache.overallMshrMisses::cpu_cluster.cpus0.inst        10701                       # number of overall MSHR misses (Count)
testsys.cpu_cluster.cpus0.icache.overallMshrMisses::total        10701                       # number of overall MSHR misses (Count)
testsys.cpu_cluster.cpus0.icache.demandMshrMissLatency::cpu_cluster.cpus0.inst    461298750                       # number of demand (read+write) MSHR miss ticks (Tick)
testsys.cpu_cluster.cpus0.icache.demandMshrMissLatency::total    461298750                       # number of demand (read+write) MSHR miss ticks (Tick)
testsys.cpu_cluster.cpus0.icache.overallMshrMissLatency::cpu_cluster.cpus0.inst    461298750                       # number of overall MSHR miss ticks (Tick)
testsys.cpu_cluster.cpus0.icache.overallMshrMissLatency::total    461298750                       # number of overall MSHR miss ticks (Tick)
testsys.cpu_cluster.cpus0.icache.demandMshrMissRate::cpu_cluster.cpus0.inst     0.001799                       # mshr miss ratio for demand accesses (Ratio)
testsys.cpu_cluster.cpus0.icache.demandMshrMissRate::total     0.001799                       # mshr miss ratio for demand accesses (Ratio)
testsys.cpu_cluster.cpus0.icache.overallMshrMissRate::cpu_cluster.cpus0.inst     0.001799                       # mshr miss ratio for overall accesses (Ratio)
testsys.cpu_cluster.cpus0.icache.overallMshrMissRate::total     0.001799                       # mshr miss ratio for overall accesses (Ratio)
testsys.cpu_cluster.cpus0.icache.demandAvgMshrMissLatency::cpu_cluster.cpus0.inst 43108.003925                       # average overall mshr miss latency ((Cycle/Count))
testsys.cpu_cluster.cpus0.icache.demandAvgMshrMissLatency::total 43108.003925                       # average overall mshr miss latency ((Cycle/Count))
testsys.cpu_cluster.cpus0.icache.overallAvgMshrMissLatency::cpu_cluster.cpus0.inst 43108.003925                       # average overall mshr miss latency ((Cycle/Count))
testsys.cpu_cluster.cpus0.icache.overallAvgMshrMissLatency::total 43108.003925                       # average overall mshr miss latency ((Cycle/Count))
testsys.cpu_cluster.cpus0.icache.replacements        10594                       # number of replacements (Count)
testsys.cpu_cluster.cpus0.icache.ReadReq.hits::cpu_cluster.cpus0.inst      5937683                       # number of ReadReq hits (Count)
testsys.cpu_cluster.cpus0.icache.ReadReq.hits::total      5937683                       # number of ReadReq hits (Count)
testsys.cpu_cluster.cpus0.icache.ReadReq.misses::cpu_cluster.cpus0.inst        10701                       # number of ReadReq misses (Count)
testsys.cpu_cluster.cpus0.icache.ReadReq.misses::total        10701                       # number of ReadReq misses (Count)
testsys.cpu_cluster.cpus0.icache.ReadReq.missLatency::cpu_cluster.cpus0.inst    463974000                       # number of ReadReq miss ticks (Tick)
testsys.cpu_cluster.cpus0.icache.ReadReq.missLatency::total    463974000                       # number of ReadReq miss ticks (Tick)
testsys.cpu_cluster.cpus0.icache.ReadReq.accesses::cpu_cluster.cpus0.inst      5948384                       # number of ReadReq accesses(hits+misses) (Count)
testsys.cpu_cluster.cpus0.icache.ReadReq.accesses::total      5948384                       # number of ReadReq accesses(hits+misses) (Count)
testsys.cpu_cluster.cpus0.icache.ReadReq.missRate::cpu_cluster.cpus0.inst     0.001799                       # miss rate for ReadReq accesses (Ratio)
testsys.cpu_cluster.cpus0.icache.ReadReq.missRate::total     0.001799                       # miss rate for ReadReq accesses (Ratio)
testsys.cpu_cluster.cpus0.icache.ReadReq.avgMissLatency::cpu_cluster.cpus0.inst 43358.003925                       # average ReadReq miss latency ((Tick/Count))
testsys.cpu_cluster.cpus0.icache.ReadReq.avgMissLatency::total 43358.003925                       # average ReadReq miss latency ((Tick/Count))
testsys.cpu_cluster.cpus0.icache.ReadReq.mshrMisses::cpu_cluster.cpus0.inst        10701                       # number of ReadReq MSHR misses (Count)
testsys.cpu_cluster.cpus0.icache.ReadReq.mshrMisses::total        10701                       # number of ReadReq MSHR misses (Count)
testsys.cpu_cluster.cpus0.icache.ReadReq.mshrMissLatency::cpu_cluster.cpus0.inst    461298750                       # number of ReadReq MSHR miss ticks (Tick)
testsys.cpu_cluster.cpus0.icache.ReadReq.mshrMissLatency::total    461298750                       # number of ReadReq MSHR miss ticks (Tick)
testsys.cpu_cluster.cpus0.icache.ReadReq.mshrMissRate::cpu_cluster.cpus0.inst     0.001799                       # mshr miss rate for ReadReq accesses (Ratio)
testsys.cpu_cluster.cpus0.icache.ReadReq.mshrMissRate::total     0.001799                       # mshr miss rate for ReadReq accesses (Ratio)
testsys.cpu_cluster.cpus0.icache.ReadReq.avgMshrMissLatency::cpu_cluster.cpus0.inst 43108.003925                       # average ReadReq mshr miss latency ((Tick/Count))
testsys.cpu_cluster.cpus0.icache.ReadReq.avgMshrMissLatency::total 43108.003925                       # average ReadReq mshr miss latency ((Tick/Count))
testsys.cpu_cluster.cpus0.icache.power_state.pwrStateResidencyTicks::UNDEFINED 1289968970750                       # Cumulative time (in ticks) in various power states (Tick)
testsys.cpu_cluster.cpus0.icache.tags.tagsInUse   732.091157                       # Average ticks per tags in use ((Tick/Count))
testsys.cpu_cluster.cpus0.icache.tags.totalRefs      5850033                       # Total number of references to valid blocks. (Count)
testsys.cpu_cluster.cpus0.icache.tags.sampledRefs        10594                       # Sample count of references to valid blocks. (Count)
testsys.cpu_cluster.cpus0.icache.tags.avgRefs   552.202473                       # Average number of references to valid blocks. ((Count/Count))
testsys.cpu_cluster.cpus0.icache.tags.warmupTick            0                       # The tick when the warmup percentage was hit. (Tick)
testsys.cpu_cluster.cpus0.icache.tags.occupancies::cpu_cluster.cpus0.inst   732.091157                       # Average occupied blocks per tick, per requestor ((Count/Tick))
testsys.cpu_cluster.cpus0.icache.tags.avgOccs::cpu_cluster.cpus0.inst     0.953244                       # Average percentage of cache occupancy ((Ratio/Tick))
testsys.cpu_cluster.cpus0.icache.tags.avgOccs::total     0.953244                       # Average percentage of cache occupancy ((Ratio/Tick))
testsys.cpu_cluster.cpus0.icache.tags.occupanciesTaskId::1024          768                       # Occupied blocks per task id (Count)
testsys.cpu_cluster.cpus0.icache.tags.ageTaskId_1024::0          104                       # Occupied blocks per task id, per block age (Count)
testsys.cpu_cluster.cpus0.icache.tags.ageTaskId_1024::1          353                       # Occupied blocks per task id, per block age (Count)
testsys.cpu_cluster.cpus0.icache.tags.ageTaskId_1024::2          310                       # Occupied blocks per task id, per block age (Count)
testsys.cpu_cluster.cpus0.icache.tags.ageTaskId_1024::4            1                       # Occupied blocks per task id, per block age (Count)
testsys.cpu_cluster.cpus0.icache.tags.ratioOccsTaskId::1024            1                       # Ratio of occupied blocks and all blocks, per task id (Ratio)
testsys.cpu_cluster.cpus0.icache.tags.tagAccesses     17855853                       # Number of tag accesses (Count)
testsys.cpu_cluster.cpus0.icache.tags.dataAccesses     17855853                       # Number of data accesses (Count)
testsys.cpu_cluster.cpus0.icache.tags.power_state.pwrStateResidencyTicks::UNDEFINED 1289968970750                       # Cumulative time (in ticks) in various power states (Tick)
testsys.cpu_cluster.cpus0.itb_walker_cache.demandHits::cpu_cluster.cpus0.mmu.itb_walker         1690                       # number of demand (read+write) hits (Count)
testsys.cpu_cluster.cpus0.itb_walker_cache.demandHits::total         1690                       # number of demand (read+write) hits (Count)
testsys.cpu_cluster.cpus0.itb_walker_cache.overallHits::cpu_cluster.cpus0.mmu.itb_walker         1690                       # number of overall hits (Count)
testsys.cpu_cluster.cpus0.itb_walker_cache.overallHits::total         1690                       # number of overall hits (Count)
testsys.cpu_cluster.cpus0.itb_walker_cache.demandMisses::cpu_cluster.cpus0.mmu.itb_walker          301                       # number of demand (read+write) misses (Count)
testsys.cpu_cluster.cpus0.itb_walker_cache.demandMisses::total          301                       # number of demand (read+write) misses (Count)
testsys.cpu_cluster.cpus0.itb_walker_cache.overallMisses::cpu_cluster.cpus0.mmu.itb_walker          301                       # number of overall misses (Count)
testsys.cpu_cluster.cpus0.itb_walker_cache.overallMisses::total          301                       # number of overall misses (Count)
testsys.cpu_cluster.cpus0.itb_walker_cache.demandMissLatency::cpu_cluster.cpus0.mmu.itb_walker     12038699                       # number of demand (read+write) miss ticks (Tick)
testsys.cpu_cluster.cpus0.itb_walker_cache.demandMissLatency::total     12038699                       # number of demand (read+write) miss ticks (Tick)
testsys.cpu_cluster.cpus0.itb_walker_cache.overallMissLatency::cpu_cluster.cpus0.mmu.itb_walker     12038699                       # number of overall miss ticks (Tick)
testsys.cpu_cluster.cpus0.itb_walker_cache.overallMissLatency::total     12038699                       # number of overall miss ticks (Tick)
testsys.cpu_cluster.cpus0.itb_walker_cache.demandAccesses::cpu_cluster.cpus0.mmu.itb_walker         1991                       # number of demand (read+write) accesses (Count)
testsys.cpu_cluster.cpus0.itb_walker_cache.demandAccesses::total         1991                       # number of demand (read+write) accesses (Count)
testsys.cpu_cluster.cpus0.itb_walker_cache.overallAccesses::cpu_cluster.cpus0.mmu.itb_walker         1991                       # number of overall (read+write) accesses (Count)
testsys.cpu_cluster.cpus0.itb_walker_cache.overallAccesses::total         1991                       # number of overall (read+write) accesses (Count)
testsys.cpu_cluster.cpus0.itb_walker_cache.demandMissRate::cpu_cluster.cpus0.mmu.itb_walker     0.151180                       # miss rate for demand accesses (Ratio)
testsys.cpu_cluster.cpus0.itb_walker_cache.demandMissRate::total     0.151180                       # miss rate for demand accesses (Ratio)
testsys.cpu_cluster.cpus0.itb_walker_cache.overallMissRate::cpu_cluster.cpus0.mmu.itb_walker     0.151180                       # miss rate for overall accesses (Ratio)
testsys.cpu_cluster.cpus0.itb_walker_cache.overallMissRate::total     0.151180                       # miss rate for overall accesses (Ratio)
testsys.cpu_cluster.cpus0.itb_walker_cache.demandAvgMissLatency::cpu_cluster.cpus0.mmu.itb_walker 39995.677741                       # average overall miss latency ((Cycle/Count))
testsys.cpu_cluster.cpus0.itb_walker_cache.demandAvgMissLatency::total 39995.677741                       # average overall miss latency ((Cycle/Count))
testsys.cpu_cluster.cpus0.itb_walker_cache.overallAvgMissLatency::cpu_cluster.cpus0.mmu.itb_walker 39995.677741                       # average overall miss latency ((Cycle/Count))
testsys.cpu_cluster.cpus0.itb_walker_cache.overallAvgMissLatency::total 39995.677741                       # average overall miss latency ((Cycle/Count))
testsys.cpu_cluster.cpus0.itb_walker_cache.blockedCycles::no_mshrs            0                       # number of cycles access was blocked (Cycle)
testsys.cpu_cluster.cpus0.itb_walker_cache.blockedCycles::no_targets            0                       # number of cycles access was blocked (Cycle)
testsys.cpu_cluster.cpus0.itb_walker_cache.blockedCauses::no_mshrs            0                       # number of times access was blocked (Count)
testsys.cpu_cluster.cpus0.itb_walker_cache.blockedCauses::no_targets            0                       # number of times access was blocked (Count)
testsys.cpu_cluster.cpus0.itb_walker_cache.avgBlocked::no_mshrs          nan                       # average number of cycles each access was blocked ((Cycle/Count))
testsys.cpu_cluster.cpus0.itb_walker_cache.avgBlocked::no_targets          nan                       # average number of cycles each access was blocked ((Cycle/Count))
testsys.cpu_cluster.cpus0.itb_walker_cache.writebacks::writebacks          277                       # number of writebacks (Count)
testsys.cpu_cluster.cpus0.itb_walker_cache.writebacks::total          277                       # number of writebacks (Count)
testsys.cpu_cluster.cpus0.itb_walker_cache.demandMshrMisses::cpu_cluster.cpus0.mmu.itb_walker          301                       # number of demand (read+write) MSHR misses (Count)
testsys.cpu_cluster.cpus0.itb_walker_cache.demandMshrMisses::total          301                       # number of demand (read+write) MSHR misses (Count)
testsys.cpu_cluster.cpus0.itb_walker_cache.overallMshrMisses::cpu_cluster.cpus0.mmu.itb_walker          301                       # number of overall MSHR misses (Count)
testsys.cpu_cluster.cpus0.itb_walker_cache.overallMshrMisses::total          301                       # number of overall MSHR misses (Count)
testsys.cpu_cluster.cpus0.itb_walker_cache.demandMshrMissLatency::cpu_cluster.cpus0.mmu.itb_walker     11737699                       # number of demand (read+write) MSHR miss ticks (Tick)
testsys.cpu_cluster.cpus0.itb_walker_cache.demandMshrMissLatency::total     11737699                       # number of demand (read+write) MSHR miss ticks (Tick)
testsys.cpu_cluster.cpus0.itb_walker_cache.overallMshrMissLatency::cpu_cluster.cpus0.mmu.itb_walker     11737699                       # number of overall MSHR miss ticks (Tick)
testsys.cpu_cluster.cpus0.itb_walker_cache.overallMshrMissLatency::total     11737699                       # number of overall MSHR miss ticks (Tick)
testsys.cpu_cluster.cpus0.itb_walker_cache.demandMshrMissRate::cpu_cluster.cpus0.mmu.itb_walker     0.151180                       # mshr miss ratio for demand accesses (Ratio)
testsys.cpu_cluster.cpus0.itb_walker_cache.demandMshrMissRate::total     0.151180                       # mshr miss ratio for demand accesses (Ratio)
testsys.cpu_cluster.cpus0.itb_walker_cache.overallMshrMissRate::cpu_cluster.cpus0.mmu.itb_walker     0.151180                       # mshr miss ratio for overall accesses (Ratio)
testsys.cpu_cluster.cpus0.itb_walker_cache.overallMshrMissRate::total     0.151180                       # mshr miss ratio for overall accesses (Ratio)
testsys.cpu_cluster.cpus0.itb_walker_cache.demandAvgMshrMissLatency::cpu_cluster.cpus0.mmu.itb_walker 38995.677741                       # average overall mshr miss latency ((Cycle/Count))
testsys.cpu_cluster.cpus0.itb_walker_cache.demandAvgMshrMissLatency::total 38995.677741                       # average overall mshr miss latency ((Cycle/Count))
testsys.cpu_cluster.cpus0.itb_walker_cache.overallAvgMshrMissLatency::cpu_cluster.cpus0.mmu.itb_walker 38995.677741                       # average overall mshr miss latency ((Cycle/Count))
testsys.cpu_cluster.cpus0.itb_walker_cache.overallAvgMshrMissLatency::total 38995.677741                       # average overall mshr miss latency ((Cycle/Count))
testsys.cpu_cluster.cpus0.itb_walker_cache.replacements          277                       # number of replacements (Count)
testsys.cpu_cluster.cpus0.itb_walker_cache.ReadReq.hits::cpu_cluster.cpus0.mmu.itb_walker         1690                       # number of ReadReq hits (Count)
[...]
testsys.pci_devices1.power_state.pwrStateResidencyTicks::UNDEFINED 1290741647250                       # Cumulative time (in ticks) in various power states (Tick)
testsys.pci_devices2.EtherDevice.postedInterrupts            0                       # Number of posts to CPU (Count)
testsys.pci_devices2.EtherDevice.descDmaReads            0                       # Number of descriptors the device read w/ DMA (Count)
testsys.pci_devices2.EtherDevice.descDmaWrites            0                       # Number of descriptors the device wrote w/ DMA (Count)
testsys.pci_devices2.EtherDevice.descDmaRdBytes            0                       # Number of descriptor bytes read w/ DMA (Count)
testsys.pci_devices2.EtherDevice.descDmaWrBytes            0                       # Number of descriptor bytes write w/ DMA (Count)
testsys.pci_devices2.EtherDevice.postedSwi            0                       # Number of software interrupts posted to CPU (Count)
testsys.pci_devices2.EtherDevice.totalSwi            0                       # Total number of Swi written to ISR (Count)
testsys.pci_devices2.EtherDevice.coalescedSwi          nan                       # Average number of Swi's coalesced into each post ((Count/Count))
testsys.pci_devices2.EtherDevice.postedRxIdle            0                       # Number of rxIdle interrupts posted to CPU (Count)
testsys.pci_devices2.EtherDevice.totalRxIdle            0                       # Total number of RxIdle written to ISR (Count)
testsys.pci_devices2.EtherDevice.coalescedRxIdle          nan                       # Average number of RxIdle's coalesced into each post ((Count/Count))
testsys.pci_devices2.EtherDevice.postedRxOk            0                       # Number of RxOk interrupts posted to CPU (Count)
testsys.pci_devices2.EtherDevice.totalRxOk            0                       # Total number of RxOk written to ISR (Count)
testsys.pci_devices2.EtherDevice.coalescedRxOk          nan                       # Average number of RxOk's coalesced into each post ((Count/Count))
testsys.pci_devices2.EtherDevice.postedRxDesc            0                       # Number of RxDesc interrupts posted to CPU (Count)
testsys.pci_devices2.EtherDevice.totalRxDesc            0                       # Total number of RxDesc written to ISR (Count)
testsys.pci_devices2.EtherDevice.coalescedRxDesc          nan                       # Average number of RxDesc's coalesced into each post ((Count/Count))
testsys.pci_devices2.EtherDevice.postedTxOk            0                       # Number of TxOk interrupts posted to CPU (Count)
testsys.pci_devices2.EtherDevice.totalTxOk            0                       # Total number of TxOk written to ISR (Count)
testsys.pci_devices2.EtherDevice.coalescedTxOk          nan                       # Average number of TxOk's coalesced into each post ((Count/Count))
testsys.pci_devices2.EtherDevice.postedTxIdle            0                       # Number of TxIdle interrupts posted to CPU (Count)
testsys.pci_devices2.EtherDevice.totalTxIdle            0                       # Total number of TxIdle written to ISR (Count)
testsys.pci_devices2.EtherDevice.coalescedTxIdle          nan                       # Average number of TxIdle's coalesced into each post ((Count/Count))
testsys.pci_devices2.EtherDevice.postedTxDesc            0                       # Number of TxDesc interrupts posted to CPU (Count)
testsys.pci_devices2.EtherDevice.totalTxDesc            0                       # Total number of TxDesc written to ISR (Count)
testsys.pci_devices2.EtherDevice.coalescedTxDesc          nan                       # Average number of TxDesc's coalesced into each post ((Count/Count))
testsys.pci_devices2.EtherDevice.postedRxOrn            0                       # Number of RxOrn posted to CPU (Count)
testsys.pci_devices2.EtherDevice.totalRxOrn            0                       # Total number of RxOrn written to ISR (Count)
testsys.pci_devices2.EtherDevice.coalescedRxOrn          nan                       # Average number of RxOrn's coalesced into each post ((Count/Count))
testsys.pci_devices2.EtherDevice.coalescedTotal          nan                       # Average number of interrupts coalesced into each post ((Count/Count))
testsys.pci_devices2.EtherDevice.droppedPackets            0                       # Number of packets dropped (Count)
testsys.pci_devices2.power_state.pwrStateResidencyTicks::UNDEFINED 1290741647250                       # Cumulative time (in ticks) in various power states (Tick)
testsys.pci_devices3.EtherDevice.postedInterrupts            0                       # Number of posts to CPU (Count)
testsys.pci_devices3.EtherDevice.descDmaReads            0                       # Number of descriptors the device read w/ DMA (Count)
testsys.pci_devices3.EtherDevice.descDmaWrites            0                       # Number of descriptors the device wrote w/ DMA (Count)
testsys.pci_devices3.EtherDevice.descDmaRdBytes            0                       # Number of descriptor bytes read w/ DMA (Count)
testsys.pci_devices3.EtherDevice.descDmaWrBytes            0                       # Number of descriptor bytes write w/ DMA (Count)
testsys.pci_devices3.EtherDevice.postedSwi            0                       # Number of software interrupts posted to CPU (Count)
testsys.pci_devices3.EtherDevice.totalSwi            0                       # Total number of Swi written to ISR (Count)
testsys.pci_devices3.EtherDevice.coalescedSwi          nan                       # Average number of Swi's coalesced into each post ((Count/Count))
testsys.pci_devices3.EtherDevice.postedRxIdle            0                       # Number of rxIdle interrupts posted to CPU (Count)
testsys.pci_devices3.EtherDevice.totalRxIdle            0                       # Total number of RxIdle written to ISR (Count)
testsys.pci_devices3.EtherDevice.coalescedRxIdle          nan                       # Average number of RxIdle's coalesced into each post ((Count/Count))
testsys.pci_devices3.EtherDevice.postedRxOk            0                       # Number of RxOk interrupts posted to CPU (Count)
testsys.pci_devices3.EtherDevice.totalRxOk            0                       # Total number of RxOk written to ISR (Count)
testsys.pci_devices3.EtherDevice.coalescedRxOk          nan                       # Average number of RxOk's coalesced into each post ((Count/Count))
testsys.pci_devices3.EtherDevice.postedRxDesc            0                       # Number of RxDesc interrupts posted to CPU (Count)
testsys.pci_devices3.EtherDevice.totalRxDesc            0                       # Total number of RxDesc written to ISR (Count)
testsys.pci_devices3.EtherDevice.coalescedRxDesc          nan                       # Average number of RxDesc's coalesced into each post ((Count/Count))
testsys.pci_devices3.EtherDevice.postedTxOk            0                       # Number of TxOk interrupts posted to CPU (Count)
testsys.pci_devices3.EtherDevice.totalTxOk            0                       # Total number of TxOk written to ISR (Count)
testsys.pci_devices3.EtherDevice.coalescedTxOk          nan                       # Average number of TxOk's coalesced into each post ((Count/Count))
testsys.pci_devices3.EtherDevice.postedTxIdle            0                       # Number of TxIdle interrupts posted to CPU (Count)
testsys.pci_devices3.EtherDevice.totalTxIdle            0                       # Total number of TxIdle written to ISR (Count)
testsys.pci_devices3.EtherDevice.coalescedTxIdle          nan                       # Average number of TxIdle's coalesced into each post ((Count/Count))
testsys.pci_devices3.EtherDevice.postedTxDesc            0                       # Number of TxDesc interrupts posted to CPU (Count)
testsys.pci_devices3.EtherDevice.totalTxDesc            0                       # Total number of TxDesc written to ISR (Count)
testsys.pci_devices3.EtherDevice.coalescedTxDesc          nan                       # Average number of TxDesc's coalesced into each post ((Count/Count))
testsys.pci_devices3.EtherDevice.postedRxOrn            0                       # Number of RxOrn posted to CPU (Count)
testsys.pci_devices3.EtherDevice.totalRxOrn            0                       # Total number of RxOrn written to ISR (Count)
testsys.pci_devices3.EtherDevice.coalescedRxOrn          nan                       # Average number of RxOrn's coalesced into each post ((Count/Count))
testsys.pci_devices3.EtherDevice.coalescedTotal          nan                       # Average number of interrupts coalesced into each post ((Count/Count))
testsys.pci_devices3.EtherDevice.droppedPackets            0                       # Number of packets dropped (Count)
testsys.pci_devices3.power_state.pwrStateResidencyTicks::UNDEFINED 1290741647250                       # Cumulative time (in ticks) in various power states (Tick)
testsys.pci_devices4.EtherDevice.postedInterrupts            0                       # Number of posts to CPU (Count)
testsys.pci_devices4.EtherDevice.descDmaReads            0                       # Number of descriptors the device read w/ DMA (Count)
testsys.pci_devices4.EtherDevice.descDmaWrites            0                       # Number of descriptors the device wrote w/ DMA (Count)
testsys.pci_devices4.EtherDevice.descDmaRdBytes            0                       # Number of descriptor bytes read w/ DMA (Count)
testsys.pci_devices4.EtherDevice.descDmaWrBytes            0                       # Number of descriptor bytes write w/ DMA (Count)
testsys.pci_devices4.EtherDevice.postedSwi            0                       # Number of software interrupts posted to CPU (Count)
testsys.pci_devices4.EtherDevice.totalSwi            0                       # Total number of Swi written to ISR (Count)
testsys.pci_devices4.EtherDevice.coalescedSwi          nan                       # Average number of Swi's coalesced into each post ((Count/Count))
testsys.pci_devices4.EtherDevice.postedRxIdle            0                       # Number of rxIdle interrupts posted to CPU (Count)
testsys.pci_devices4.EtherDevice.totalRxIdle            0                       # Total number of RxIdle written to ISR (Count)
testsys.pci_devices4.EtherDevice.coalescedRxIdle          nan                       # Average number of RxIdle's coalesced into each post ((Count/Count))
testsys.pci_devices4.EtherDevice.postedRxOk            0                       # Number of RxOk interrupts posted to CPU (Count)
testsys.pci_devices4.EtherDevice.totalRxOk            0                       # Total number of RxOk written to ISR (Count)
testsys.pci_devices4.EtherDevice.coalescedRxOk          nan                       # Average number of RxOk's coalesced into each post ((Count/Count))
testsys.pci_devices4.EtherDevice.postedRxDesc            0                       # Number of RxDesc interrupts posted to CPU (Count)
testsys.pci_devices4.EtherDevice.totalRxDesc            0                       # Total number of RxDesc written to ISR (Count)
testsys.pci_devices4.EtherDevice.coalescedRxDesc          nan                       # Average number of RxDesc's coalesced into each post ((Count/Count))
testsys.pci_devices4.EtherDevice.postedTxOk            0                       # Number of TxOk interrupts posted to CPU (Count)
testsys.pci_devices4.EtherDevice.totalTxOk            0                       # Total number of TxOk written to ISR (Count)
testsys.pci_devices4.EtherDevice.coalescedTxOk          nan                       # Average number of TxOk's coalesced into each post ((Count/Count))
testsys.pci_devices4.EtherDevice.postedTxIdle            0                       # Number of TxIdle interrupts posted to CPU (Count)
testsys.pci_devices4.EtherDevice.totalTxIdle            0                       # Total number of TxIdle written to ISR (Count)
testsys.pci_devices4.EtherDevice.coalescedTxIdle          nan                       # Average number of TxIdle's coalesced into each post ((Count/Count))
testsys.pci_devices4.EtherDevice.postedTxDesc            0                       # Number of TxDesc interrupts posted to CPU (Count)
testsys.pci_devices4.EtherDevice.totalTxDesc            0                       # Total number of TxDesc written to ISR (Count)
testsys.pci_devices4.EtherDevice.coalescedTxDesc          nan                       # Average number of TxDesc's coalesced into each post ((Count/Count))
testsys.pci_devices4.EtherDevice.postedRxOrn            0                       # Number of RxOrn posted to CPU (Count)
testsys.pci_devices4.EtherDevice.totalRxOrn            0                       # Total number of RxOrn written to ISR (Count)
testsys.pci_devices4.EtherDevice.coalescedRxOrn          nan                       # Average number of RxOrn's coalesced into each post ((Count/Count))
testsys.pci_devices4.EtherDevice.coalescedTotal          nan                       # Average number of interrupts coalesced into each post ((Count/Count))
testsys.pci_devices4.EtherDevice.droppedPackets            0                       # Number of packets dropped (Count)
testsys.pci_devices4.power_state.pwrStateResidencyTicks::UNDEFINED 1290741647250                       # Cumulative time (in ticks) in various power states (Tick)
testsys.realview.bootmem.power_state.pwrStateResidencyTicks::UNDEFINED 1290741647250                       # Cumulative time (in ticks) in various power states (Tick)
testsys.realview.clock24MHz.clock               41667                       # Clock period in ticks (Tick)
testsys.realview.clock32KHz.clock            31250000                       # Clock period in ticks (Tick)
testsys.realview.dcc.osc_cpu.clock              16667                       # Clock period in ticks (Tick)
testsys.realview.dcc.osc_ddr.clock              25000                       # Clock period in ticks (Tick)
testsys.realview.dcc.osc_hsbm.clock             25000                       # Clock period in ticks (Tick)
testsys.realview.dcc.osc_pxl.clock              42105                       # Clock period in ticks (Tick)
testsys.realview.dcc.osc_smb.clock              20000                       # Clock period in ticks (Tick)
testsys.realview.dcc.osc_sys.clock              16667                       # Clock period in ticks (Tick)
testsys.realview.el2_watchdog.power_state.pwrStateResidencyTicks::UNDEFINED 1290741647250                       # Cumulative time (in ticks) in various power states (Tick)
testsys.realview.energy_ctrl.power_state.pwrStateResidencyTicks::UNDEFINED 1290741647250                       # Cumulative time (in ticks) in various power states (Tick)
testsys.realview.flash0.power_state.pwrStateResidencyTicks::UNDEFINED 1290741647250                       # Cumulative time (in ticks) in various power states (Tick)
testsys.realview.flash1.power_state.pwrStateResidencyTicks::UNDEFINED 1290741647250                       # Cumulative time (in ticks) in various power states (Tick)
testsys.realview.generic_timer_mem.frames0.power_state.pwrStateResidencyTicks::UNDEFINED 1290741647250                       # Cumulative time (in ticks) in various power states (Tick)
testsys.realview.generic_timer_mem.frames1.power_state.pwrStateResidencyTicks::UNDEFINED 1290741647250                       # Cumulative time (in ticks) in various power states (Tick)
testsys.realview.generic_timer_mem.power_state.pwrStateResidencyTicks::UNDEFINED 1290741647250                       # Cumulative time (in ticks) in various power states (Tick)
testsys.realview.gic.power_state.pwrStateResidencyTicks::UNDEFINED 1290741647250                       # Cumulative time (in ticks) in various power states (Tick)
testsys.realview.gicv2m.power_state.pwrStateResidencyTicks::UNDEFINED 1290741647250                       # Cumulative time (in ticks) in various power states (Tick)
testsys.realview.io_voltage.voltage          3.300000                       # Voltage in Volts (Volt)
testsys.realview.kmi0.power_state.pwrStateResidencyTicks::UNDEFINED 1290741647250                       # Cumulative time (in ticks) in various power states (Tick)
testsys.realview.kmi1.power_state.pwrStateResidencyTicks::UNDEFINED 1290741647250                       # Cumulative time (in ticks) in various power states (Tick)
testsys.realview.mcc.osc_clcd.clock             42105                       # Clock period in ticks (Tick)
testsys.realview.mcc.osc_mcc.clock              20000                       # Clock period in ticks (Tick)
testsys.realview.mcc.osc_peripheral.clock        41667                       # Clock period in ticks (Tick)
testsys.realview.mcc.osc_system_bus.clock        41667                       # Clock period in ticks (Tick)
testsys.realview.non_trusted_sram.power_state.pwrStateResidencyTicks::UNDEFINED 1290741647250                       # Cumulative time (in ticks) in various power states (Tick)
testsys.realview.pci_host.power_state.pwrStateResidencyTicks::UNDEFINED 1290741647250                       # Cumulative time (in ticks) in various power states (Tick)
testsys.realview.pwr_ctrl.power_state.pwrStateResidencyTicks::UNDEFINED 1290741647250                       # Cumulative time (in ticks) in various power states (Tick)
testsys.realview.realview_io.power_state.pwrStateResidencyTicks::UNDEFINED 1290741647250                       # Cumulative time (in ticks) in various power states (Tick)
testsys.realview.rtc.power_state.pwrStateResidencyTicks::UNDEFINED 1290741647250                       # Cumulative time (in ticks) in various power states (Tick)
testsys.realview.system_watchdog.power_state.pwrStateResidencyTicks::UNDEFINED 1290741647250                       # Cumulative time (in ticks) in various power states (Tick)
testsys.realview.trusted_sram.power_state.pwrStateResidencyTicks::UNDEFINED 1290741647250                       # Cumulative time (in ticks) in various power states (Tick)
testsys.realview.trusted_watchdog.power_state.pwrStateResidencyTicks::UNDEFINED 1290741647250                       # Cumulative time (in ticks) in various power states (Tick)
testsys.realview.uart0.power_state.pwrStateResidencyTicks::UNDEFINED 1290741647250                       # Cumulative time (in ticks) in various power states (Tick)
testsys.realview.uart1.power_state.pwrStateResidencyTicks::UNDEFINED 1290741647250                       # Cumulative time (in ticks) in various power states (Tick)
testsys.realview.uart2.power_state.pwrStateResidencyTicks::UNDEFINED 1290741647250                       # Cumulative time (in ticks) in various power states (Tick)
testsys.realview.uart3.power_state.pwrStateResidencyTicks::UNDEFINED 1290741647250                       # Cumulative time (in ticks) in various power states (Tick)
testsys.realview.vgic.power_state.pwrStateResidencyTicks::UNDEFINED 1290741647250                       # Cumulative time (in ticks) in various power states (Tick)
testsys.realview.vio0.power_state.pwrStateResidencyTicks::UNDEFINED 1290741647250                       # Cumulative time (in ticks) in various power states (Tick)
testsys.realview.vio1.power_state.pwrStateResidencyTicks::UNDEFINED 1290741647250                       # Cumulative time (in ticks) in various power states (Tick)
testsys.realview.vram.power_state.pwrStateResidencyTicks::UNDEFINED 1290741647250                       # Cumulative time (in ticks) in various power states (Tick)
testsys.realview.watchdog.power_state.pwrStateResidencyTicks::UNDEFINED 1290741647250                       # Cumulative time (in ticks) in various power states (Tick)
testsys.voltage_domain.voltage                      1                       # Voltage in Volts (Volt)
testsys.workload.inst.arm                           0                       # number of arm instructions executed (Count)
testsys.workload.inst.quiesce                   14864                       # number of quiesce instructions executed (Count)

---------- End Simulation Statistics   ----------
