
---------- Begin Simulation Statistics ----------
simSeconds                                   0.389453                       # Number of seconds simulated (Second)
simTicks                                 389452926250                       # Number of ticks simulated (Tick)
finalTick                                389452926250                       # Number of ticks from beginning of simulation (restored from checkpoints and never reset) (Tick)
simFreq                                  1000000000000                       # The number of ticks per simulated second ((Tick/Second))
hostSeconds                                    619.80                       # Real time elapsed on the host (Second)
hostTickRate                                628356406                       # The number of ticks simulated per host second (ticks/s) ((Tick/Second))
hostMemory                                  407638176                       # Number of bytes of host memory used (Byte)
simInsts                                    244711433                       # Number of instructions simulated (Count)
simOps                                      269284020                       # Number of ops (including micro ops) simulated (Count)
hostInstRate                                   394826                       # Simulator instruction rate (inst/s) ((Count/Second))
hostOpRate                                     434472                       # Simulator op (including micro ops) rate (op/s) ((Count/Second))
testsys.clk_domain.clock                         1000                       # Clock period in ticks (Tick)
testsys.cpu_cluster.clk_domain.clock              250                       # Clock period in ticks (Tick)
testsys.cpu_cluster.cpus0.numCycles         234813529                       # Number of cpu cycles simulated (Cycle)
testsys.cpu_cluster.cpus0.numWorkItemsStarted            0                       # Number of work items this cpu started (Count)
testsys.cpu_cluster.cpus0.numWorkItemsCompleted            0                       # Number of work items this cpu completed (Count)
testsys.cpu_cluster.cpus0.instsAdded        142890121                       # Number of instructions added to the IQ (excludes non-spec) (Count)
testsys.cpu_cluster.cpus0.nonSpecInstsAdded      1137868                       # Number of non-speculative instructions added to the IQ (Count)
testsys.cpu_cluster.cpus0.instsIssued       141668073                       # Number of instructions issued (Count)
testsys.cpu_cluster.cpus0.squashedInstsIssued       109753                       # Number of squashed instructions issued (Count)
testsys.cpu_cluster.cpus0.squashedInstsExamined     17192285                       # Number of squashed instructions iterated over during squash; mainly for profiling (Count)
testsys.cpu_cluster.cpus0.squashedOperandsExamined     12182624                       # Number of squashed operands that are examined and possibly removed from graph (Count)
testsys.cpu_cluster.cpus0.squashedNonSpecRemoved       128178                       # Number of squashed non-spec instructions that were removed (Count)
testsys.cpu_cluster.cpus0.numIssuedDist::samples    169698981                       # Number of insts issued each cycle (Count)
testsys.cpu_cluster.cpus0.numIssuedDist::mean     0.834820                       # Number of insts issued each cycle (Count)
testsys.cpu_cluster.cpus0.numIssuedDist::stdev     1.757933                       # Number of insts issued each cycle (Count)
testsys.cpu_cluster.cpus0.numIssuedDist::underflows            0      0.00%      0.00% # Number of insts issued each cycle (Count)
testsys.cpu_cluster.cpus0.numIssuedDist::0    126880796     74.77%     74.77% # Number of insts issued each cycle (Count)
testsys.cpu_cluster.cpus0.numIssuedDist::1      9626712      5.67%     80.44% # Number of insts issued each cycle (Count)
testsys.cpu_cluster.cpus0.numIssuedDist::2      8820900      5.20%     85.64% # Number of insts issued each cycle (Count)
testsys.cpu_cluster.cpus0.numIssuedDist::3      7362371      4.34%     89.98% # Number of insts issued each cycle (Count)
testsys.cpu_cluster.cpus0.numIssuedDist::4      5632979      3.32%     93.30% # Number of insts issued each cycle (Count)
testsys.cpu_cluster.cpus0.numIssuedDist::5      4069825      2.40%     95.70% # Number of insts issued each cycle (Count)
testsys.cpu_cluster.cpus0.numIssuedDist::6      3639472      2.14%     97.84% # Number of insts issued each cycle (Count)
testsys.cpu_cluster.cpus0.numIssuedDist::7      1732833      1.02%     98.86% # Number of insts issued each cycle (Count)
testsys.cpu_cluster.cpus0.numIssuedDist::8      1933093      1.14%    100.00% # Number of insts issued each cycle (Count)
testsys.cpu_cluster.cpus0.numIssuedDist::overflows            0      0.00%    100.00% # Number of insts issued each cycle (Count)
testsys.cpu_cluster.cpus0.numIssuedDist::min_value            0                       # Number of insts issued each cycle (Count)
testsys.cpu_cluster.cpus0.numIssuedDist::max_value            8                       # Number of insts issued each cycle (Count)
testsys.cpu_cluster.cpus0.numIssuedDist::total    169698981                       # Number of insts issued each cycle (Count)
testsys.cpu_cluster.cpus0.statFuBusy::No_OpClass            0      0.00%      0.00% # attempts to use FU when none available (Count)
testsys.cpu_cluster.cpus0.statFuBusy::IntAlu      1035471     52.21%     52.21% # attempts to use FU when none available (Count)
testsys.cpu_cluster.cpus0.statFuBusy::IntMult         3465      0.17%     52.39% # attempts to use FU when none available (Count)
testsys.cpu_cluster.cpus0.statFuBusy::IntDiv        10767      0.54%     52.93% # attempts to use FU when none available (Count)
testsys.cpu_cluster.cpus0.statFuBusy::FloatAdd            0      0.00%     52.93% # attempts to use FU when none available (Count)
testsys.cpu_cluster.cpus0.statFuBusy::FloatCmp            0      0.00%     52.93% # attempts to use FU when none available (Count)
testsys.cpu_cluster.cpus0.statFuBusy::FloatCvt            0      0.00%     52.93% # attempts to use FU when none available (Count)
testsys.cpu_cluster.cpus0.statFuBusy::FloatMult            0      0.00%     52.93% # attempts to use FU when none available (Count)
testsys.cpu_cluster.cpus0.statFuBusy::FloatMultAcc            0      0.00%     52.93% # attempts to use FU when none available (Count)
testsys.cpu_cluster.cpus0.statFuBusy::FloatDiv            0      0.00%     52.93% # attempts to use FU when none available (Count)
testsys.cpu_cluster.cpus0.statFuBusy::FloatMisc           88      0.00%     52.93% # attempts to use FU when none available (Count)
testsys.cpu_cluster.cpus0.statFuBusy::FloatSqrt            0      0.00%     52.93% # attempts to use FU when none available (Count)
testsys.cpu_cluster.cpus0.statFuBusy::SimdAdd            0      0.00%     52.93% # attempts to use FU when none available (Count)
testsys.cpu_cluster.cpus0.statFuBusy::SimdAddAcc            0      0.00%     52.93% # attempts to use FU when none available (Count)
testsys.cpu_cluster.cpus0.statFuBusy::SimdAlu            0      0.00%     52.93% # attempts to use FU when none available (Count)
testsys.cpu_cluster.cpus0.statFuBusy::SimdCmp            0      0.00%     52.93% # attempts to use FU when none available (Count)
testsys.cpu_cluster.cpus0.statFuBusy::SimdCvt            0      0.00%     52.93% # attempts to use FU when none available (Count)
testsys.cpu_cluster.cpus0.statFuBusy::SimdMisc            0      0.00%     52.93% # attempts to use FU when none available (Count)
testsys.cpu_cluster.cpus0.statFuBusy::SimdMult            0      0.00%     52.93% # attempts to use FU when none available (Count)
testsys.cpu_cluster.cpus0.statFuBusy::SimdMultAcc            0      0.00%     52.93% # attempts to use FU when none available (Count)
testsys.cpu_cluster.cpus0.statFuBusy::SimdShift            0      0.00%     52.93% # attempts to use FU when none available (Count)
testsys.cpu_cluster.cpus0.statFuBusy::SimdShiftAcc            0      0.00%     52.93% # attempts to use FU when none available (Count)
testsys.cpu_cluster.cpus0.statFuBusy::SimdDiv            0      0.00%     52.93% # attempts to use FU when none available (Count)
testsys.cpu_cluster.cpus0.statFuBusy::SimdSqrt            0      0.00%     52.93% # attempts to use FU when none available (Count)
testsys.cpu_cluster.cpus0.statFuBusy::SimdFloatAdd            0      0.00%     52.93% # attempts to use FU when none available (Count)
testsys.cpu_cluster.cpus0.statFuBusy::SimdFloatAlu            0      0.00%     52.93% # attempts to use FU when none available (Count)
testsys.cpu_cluster.cpus0.statFuBusy::SimdFloatCmp            0      0.00%     52.93% # attempts to use FU when none available (Count)
testsys.cpu_cluster.cpus0.statFuBusy::SimdFloatCvt            0      0.00%     52.93% # attempts to use FU when none available (Count)
testsys.cpu_cluster.cpus0.statFuBusy::SimdFloatDiv            0      0.00%     52.93% # attempts to use FU when none available (Count)
testsys.cpu_cluster.cpus0.statFuBusy::SimdFloatMisc            0      0.00%     52.93% # attempts to use FU when none available (Count)
testsys.cpu_cluster.cpus0.statFuBusy::SimdFloatMult            0      0.00%     52.93% # attempts to use FU when none available (Count)
testsys.cpu_cluster.cpus0.statFuBusy::SimdFloatMultAcc            0      0.00%     52.93% # attempts to use FU when none available (Count)
testsys.cpu_cluster.cpus0.statFuBusy::SimdFloatSqrt            0      0.00%     52.93% # attempts to use FU when none available (Count)
testsys.cpu_cluster.cpus0.statFuBusy::SimdReduceAdd            0      0.00%     52.93% # attempts to use FU when none available (Count)
testsys.cpu_cluster.cpus0.statFuBusy::SimdReduceAlu            0      0.00%     52.93% # attempts to use FU when none available (Count)
testsys.cpu_cluster.cpus0.statFuBusy::SimdReduceCmp            0      0.00%     52.93% # attempts to use FU when none available (Count)
testsys.cpu_cluster.cpus0.statFuBusy::SimdFloatReduceAdd            0      0.00%     52.93% # attempts to use FU when none available (Count)
testsys.cpu_cluster.cpus0.statFuBusy::SimdFloatReduceCmp            0      0.00%     52.93% # attempts to use FU when none available (Count)
testsys.cpu_cluster.cpus0.statFuBusy::SimdAes            0      0.00%     52.93% # attempts to use FU when none available (Count)
testsys.cpu_cluster.cpus0.statFuBusy::SimdAesMix            0      0.00%     52.93% # attempts to use FU when none available (Count)
testsys.cpu_cluster.cpus0.statFuBusy::SimdSha1Hash            0      0.00%     52.93% # attempts to use FU when none available (Count)
testsys.cpu_cluster.cpus0.statFuBusy::SimdSha1Hash2            0      0.00%     52.93% # attempts to use FU when none available (Count)
testsys.cpu_cluster.cpus0.statFuBusy::SimdSha256Hash            0      0.00%     52.93% # attempts to use FU when none available (Count)
testsys.cpu_cluster.cpus0.statFuBusy::SimdSha256Hash2            0      0.00%     52.93% # attempts to use FU when none available (Count)
testsys.cpu_cluster.cpus0.statFuBusy::SimdShaSigma2            0      0.00%     52.93% # attempts to use FU when none available (Count)
testsys.cpu_cluster.cpus0.statFuBusy::SimdShaSigma3            0      0.00%     52.93% # attempts to use FU when none available (Count)
testsys.cpu_cluster.cpus0.statFuBusy::SimdPredAlu            0      0.00%     52.93% # attempts to use FU when none available (Count)
testsys.cpu_cluster.cpus0.statFuBusy::MemRead       549841     27.72%     80.66% # attempts to use FU when none available (Count)
testsys.cpu_cluster.cpus0.statFuBusy::MemWrite       383621     19.34%    100.00% # attempts to use FU when none available (Count)
testsys.cpu_cluster.cpus0.statFuBusy::FloatMemRead            0      0.00%    100.00% # attempts to use FU when none available (Count)
testsys.cpu_cluster.cpus0.statFuBusy::FloatMemWrite            0      0.00%    100.00% # attempts to use FU when none available (Count)
testsys.cpu_cluster.cpus0.statFuBusy::IprAccess            0      0.00%    100.00% # attempts to use FU when none available (Count)
testsys.cpu_cluster.cpus0.statFuBusy::InstPrefetch            0      0.00%    100.00% # attempts to use FU when none available (Count)
testsys.cpu_cluster.cpus0.statIssuedInstType_0::No_OpClass        16747      0.01%      0.01% # Number of instructions issued per FU type, per thread (Count)
testsys.cpu_cluster.cpus0.statIssuedInstType_0::IntAlu    104551569     73.80%     73.81% # Number of instructions issued per FU type, per thread (Count)
testsys.cpu_cluster.cpus0.statIssuedInstType_0::IntMult       668326      0.47%     74.28% # Number of instructions issued per FU type, per thread (Count)
testsys.cpu_cluster.cpus0.statIssuedInstType_0::IntDiv         7809      0.01%     74.29% # Number of instructions issued per FU type, per thread (Count)
testsys.cpu_cluster.cpus0.statIssuedInstType_0::FloatAdd            0      0.00%     74.29% # Number of instructions issued per FU type, per thread (Count)
testsys.cpu_cluster.cpus0.statIssuedInstType_0::FloatCmp            0      0.00%     74.29% # Number of instructions issued per FU type, per thread (Count)
testsys.cpu_cluster.cpus0.statIssuedInstType_0::FloatCvt            0      0.00%     74.29% # Number of instructions issued per FU type, per thread (Count)
testsys.cpu_cluster.cpus0.statIssuedInstType_0::FloatMult            0      0.00%     74.29% # Number of instructions issued per FU type, per thread (Count)
testsys.cpu_cluster.cpus0.statIssuedInstType_0::FloatMultAcc            0      0.00%     74.29% # Number of instructions issued per FU type, per thread (Count)
testsys.cpu_cluster.cpus0.statIssuedInstType_0::FloatDiv            0      0.00%     74.29% # Number of instructions issued per FU type, per thread (Count)
testsys.cpu_cluster.cpus0.statIssuedInstType_0::FloatMisc        24406      0.02%     74.31% # Number of instructions issued per FU type, per thread (Count)
testsys.cpu_cluster.cpus0.statIssuedInstType_0::FloatSqrt            0      0.00%     74.31% # Number of instructions issued per FU type, per thread (Count)
testsys.cpu_cluster.cpus0.statIssuedInstType_0::SimdAdd            0      0.00%     74.31% # Number of instructions issued per FU type, per thread (Count)
testsys.cpu_cluster.cpus0.statIssuedInstType_0::SimdAddAcc            0      0.00%     74.31% # Number of instructions issued per FU type, per thread (Count)
testsys.cpu_cluster.cpus0.statIssuedInstType_0::SimdAlu            3      0.00%     74.31% # Number of instructions issued per FU type, per thread (Count)
testsys.cpu_cluster.cpus0.statIssuedInstType_0::SimdCmp            0      0.00%     74.31% # Number of instructions issued per FU type, per thread (Count)
testsys.cpu_cluster.cpus0.statIssuedInstType_0::SimdCvt            0      0.00%     74.31% # Number of instructions issued per FU type, per thread (Count)
testsys.cpu_cluster.cpus0.statIssuedInstType_0::SimdMisc          100      0.00%     74.31% # Number of instructions issued per FU type, per thread (Count)
testsys.cpu_cluster.cpus0.statIssuedInstType_0::SimdMult            0      0.00%     74.31% # Number of instructions issued per FU type, per thread (Count)
testsys.cpu_cluster.cpus0.statIssuedInstType_0::SimdMultAcc            0      0.00%     74.31% # Number of instructions issued per FU type, per thread (Count)
testsys.cpu_cluster.cpus0.statIssuedInstType_0::SimdShift            0      0.00%     74.31% # Number of instructions issued per FU type, per thread (Count)
testsys.cpu_cluster.cpus0.statIssuedInstType_0::SimdShiftAcc            0      0.00%     74.31% # Number of instructions issued per FU type, per thread (Count)
testsys.cpu_cluster.cpus0.statIssuedInstType_0::SimdDiv            0      0.00%     74.31% # Number of instructions issued per FU type, per thread (Count)
testsys.cpu_cluster.cpus0.statIssuedInstType_0::SimdSqrt            0      0.00%     74.31% # Number of instructions issued per FU type, per thread (Count)
testsys.cpu_cluster.cpus0.statIssuedInstType_0::SimdFloatAdd            0      0.00%     74.31% # Number of instructions issued per FU type, per thread (Count)
testsys.cpu_cluster.cpus0.statIssuedInstType_0::SimdFloatAlu            0      0.00%     74.31% # Number of instructions issued per FU type, per thread (Count)
testsys.cpu_cluster.cpus0.statIssuedInstType_0::SimdFloatCmp            0      0.00%     74.31% # Number of instructions issued per FU type, per thread (Count)
testsys.cpu_cluster.cpus0.statIssuedInstType_0::SimdFloatCvt            0      0.00%     74.31% # Number of instructions issued per FU type, per thread (Count)
testsys.cpu_cluster.cpus0.statIssuedInstType_0::SimdFloatDiv            0      0.00%     74.31% # Number of instructions issued per FU type, per thread (Count)
testsys.cpu_cluster.cpus0.statIssuedInstType_0::SimdFloatMisc            0      0.00%     74.31% # Number of instructions issued per FU type, per thread (Count)
testsys.cpu_cluster.cpus0.statIssuedInstType_0::SimdFloatMult            0      0.00%     74.31% # Number of instructions issued per FU type, per thread (Count)
testsys.cpu_cluster.cpus0.statIssuedInstType_0::SimdFloatMultAcc            0      0.00%     74.31% # Number of instructions issued per FU type, per thread (Count)
testsys.cpu_cluster.cpus0.statIssuedInstType_0::SimdFloatSqrt            0      0.00%     74.31% # Number of instructions issued per FU type, per thread (Count)
testsys.cpu_cluster.cpus0.statIssuedInstType_0::SimdReduceAdd            0      0.00%     74.31% # Number of instructions issued per FU type, per thread (Count)
testsys.cpu_cluster.cpus0.statIssuedInstType_0::SimdReduceAlu            0      0.00%     74.31% # Number of instructions issued per FU type, per thread (Count)
testsys.cpu_cluster.cpus0.statIssuedInstType_0::SimdReduceCmp            0      0.00%     74.31% # Number of instructions issued per FU type, per thread (Count)
testsys.cpu_cluster.cpus0.statIssuedInstType_0::SimdFloatReduceAdd            0      0.00%     74.31% # Number of instructions issued per FU type, per thread (Count)
testsys.cpu_cluster.cpus0.statIssuedInstType_0::SimdFloatReduceCmp            0      0.00%     74.31% # Number of instructions issued per FU type, per thread (Count)
testsys.cpu_cluster.cpus0.statIssuedInstType_0::SimdAes            0      0.00%     74.31% # Number of instructions issued per FU type, per thread (Count)
testsys.cpu_cluster.cpus0.statIssuedInstType_0::SimdAesMix            0      0.00%     74.31% # Number of instructions issued per FU type, per thread (Count)
testsys.cpu_cluster.cpus0.statIssuedInstType_0::SimdSha1Hash            0      0.00%     74.31% # Number of instructions issued per FU type, per thread (Count)
testsys.cpu_cluster.cpus0.statIssuedInstType_0::SimdSha1Hash2            0      0.00%     74.31% # Number of instructions issued per FU type, per thread (Count)
testsys.cpu_cluster.cpus0.statIssuedInstType_0::SimdSha256Hash            0      0.00%     74.31% # Number of instructions issued per FU type, per thread (Count)
testsys.cpu_cluster.cpus0.statIssuedInstType_0::SimdSha256Hash2            0      0.00%     74.31% # Number of instructions issued per FU type, per thread (Count)
testsys.cpu_cluster.cpus0.statIssuedInstType_0::SimdShaSigma2            0      0.00%     74.31% # Number of instructions issued per FU type, per thread (Count)
testsys.cpu_cluster.cpus0.statIssuedInstType_0::SimdShaSigma3            0      0.00%     74.31% # Number of instructions issued per FU type, per thread (Count)
testsys.cpu_cluster.cpus0.statIssuedInstType_0::SimdPredAlu            0      0.00%     74.31% # Number of instructions issued per FU type, per thread (Count)
testsys.cpu_cluster.cpus0.statIssuedInstType_0::MemRead     22980694     16.22%     90.53% # Number of instructions issued per FU type, per thread (Count)
testsys.cpu_cluster.cpus0.statIssuedInstType_0::MemWrite     13418419      9.47%    100.00% # Number of instructions issued per FU type, per thread (Count)
testsys.cpu_cluster.cpus0.statIssuedInstType_0::FloatMemRead            0      0.00%    100.00% # Number of instructions issued per FU type, per thread (Count)
testsys.cpu_cluster.cpus0.statIssuedInstType_0::FloatMemWrite            0      0.00%    100.00% # Number of instructions issued per FU type, per thread (Count)
testsys.cpu_cluster.cpus0.statIssuedInstType_0::IprAccess            0      0.00%    100.00% # Number of instructions issued per FU type, per thread (Count)
testsys.cpu_cluster.cpus0.statIssuedInstType_0::InstPrefetch            0      0.00%    100.00% # Number of instructions issued per FU type, per thread (Count)
testsys.cpu_cluster.cpus0.statIssuedInstType_0::total    141668073                       # Number of instructions issued per FU type, per thread (Count)
testsys.cpu_cluster.cpus0.issueRate          0.603322                       # Inst issue rate ((Count/Cycle))
testsys.cpu_cluster.cpus0.fuBusy              1983253                       # FU busy when requested (Count)
testsys.cpu_cluster.cpus0.fuBusyRate         0.013999                       # FU busy rate (busy events/executed inst) ((Count/Count))
testsys.cpu_cluster.cpus0.intInstQueueReads    455054038                       # Number of integer instruction queue reads (Count)
testsys.cpu_cluster.cpus0.intInstQueueWrites    161177041                       # Number of integer instruction queue writes (Count)
testsys.cpu_cluster.cpus0.intInstQueueWakeupAccesses    135303677                       # Number of integer instruction queue wakeup accesses (Count)
testsys.cpu_cluster.cpus0.fpInstQueueReads            0                       # Number of floating instruction queue reads (Count)
testsys.cpu_cluster.cpus0.fpInstQueueWrites            0                       # Number of floating instruction queue writes (Count)
testsys.cpu_cluster.cpus0.fpInstQueueWakeupAccesses            0                       # Number of floating instruction queue wakeup accesses (Count)
testsys.cpu_cluster.cpus0.vecInstQueueReads        74095                       # Number of vector instruction queue reads (Count)
testsys.cpu_cluster.cpus0.vecInstQueueWrites        54725                       # Number of vector instruction queue writes (Count)
testsys.cpu_cluster.cpus0.vecInstQueueWakeupAccesses        34737                       # Number of vector instruction queue wakeup accesses (Count)
testsys.cpu_cluster.cpus0.intAluAccesses    143597000                       # Number of integer alu accesses (Count)
testsys.cpu_cluster.cpus0.fpAluAccesses             0                       # Number of floating point alu accesses (Count)
testsys.cpu_cluster.cpus0.vecAluAccesses        37579                       # Number of vector alu accesses (Count)
testsys.cpu_cluster.cpus0.idleCycles                0                       # Number of cycles IEW is idle (Cycle)
testsys.cpu_cluster.cpus0.squashCycles         913888                       # Number of cycles IEW is squashing (Cycle)
testsys.cpu_cluster.cpus0.blockCycles        12528728                       # Number of cycles IEW is blocking (Cycle)
testsys.cpu_cluster.cpus0.unblockCycles       3500146                       # Number of cycles IEW is unblocking (Cycle)
testsys.cpu_cluster.cpus0.dispatchedInsts    144708184                       # Number of instructions dispatched to IQ (Count)
testsys.cpu_cluster.cpus0.dispSquashedInsts        58106                       # Number of squashed instructions skipped by dispatch (Count)
testsys.cpu_cluster.cpus0.dispLoadInsts      19980606                       # Number of dispatched load instructions (Count)
testsys.cpu_cluster.cpus0.dispStoreInsts     13570543                       # Number of dispatched store instructions (Count)
testsys.cpu_cluster.cpus0.dispNonSpecInsts       305526                       # Number of dispatched non-speculative instructions (Count)
testsys.cpu_cluster.cpus0.iqFullEvents         111341                       # Number of times the IQ has become full, causing a stall (Count)
testsys.cpu_cluster.cpus0.lsqFullEvents       3282670                       # Number of times the LSQ has become full, causing a stall (Count)
testsys.cpu_cluster.cpus0.memOrderViolationEvents        12240                       # Number of memory order violations (Count)
testsys.cpu_cluster.cpus0.predictedTakenIncorrect        80526                       # Number of branches that were predicted taken incorrectly (Count)
testsys.cpu_cluster.cpus0.predictedNotTakenIncorrect       180181                       # Number of branches that were predicted not taken incorrectly (Count)
testsys.cpu_cluster.cpus0.branchMispredicts       260707                       # Number of branch mispredicts detected at execute (Count)
testsys.cpu_cluster.cpus0.numInsts          139427455                       # Number of executed instructions (Count)
testsys.cpu_cluster.cpus0.numLoadInsts       22779337                       # Number of load instructions executed (Count)
testsys.cpu_cluster.cpus0.numSquashedInsts      2024817                       # Number of squashed instructions skipped in execute (Count)
testsys.cpu_cluster.cpus0.numSwp                    0                       # Number of swp insts executed (Count)
testsys.cpu_cluster.cpus0.numNop               680195                       # Number of nop insts executed (Count)
testsys.cpu_cluster.cpus0.numRefs            36014798                       # Number of memory reference insts executed (Count)
testsys.cpu_cluster.cpus0.numBranches        27745463                       # Number of branches executed (Count)
testsys.cpu_cluster.cpus0.numStoreInsts      13235461                       # Number of stores executed (Count)
testsys.cpu_cluster.cpus0.numRate            0.593779                       # Inst execution rate ((Count/Cycle))
testsys.cpu_cluster.cpus0.instsToCommit     135426047                       # Cumulative count of insts sent to commit (Count)
testsys.cpu_cluster.cpus0.writebackCount    135338414                       # Cumulative count of insts written-back (Count)
testsys.cpu_cluster.cpus0.producerInst       76703337                       # Number of instructions producing a value (Count)
testsys.cpu_cluster.cpus0.consumerInst      134428116                       # Number of instructions consuming a value (Count)
testsys.cpu_cluster.cpus0.wbRate             0.576365                       # Insts written-back per cycle ((Count/Cycle))
testsys.cpu_cluster.cpus0.wbFanout           0.570590                       # Average fanout of values written-back ((Count/Count))
testsys.cpu_cluster.cpus0.timesIdled           431784                       # Number of times that the entire CPU went into an idle state and unscheduled itself (Count)
testsys.cpu_cluster.cpus0.idleCycles         65114548                       # Total number of cycles that the CPU has spent unscheduled due to idling (Cycle)
testsys.cpu_cluster.cpus0.quiesceCycles    1322993074                       # Total number of cycles that CPU has spent quiesced or waiting for an interrupt (Cycle)
testsys.cpu_cluster.cpus0.committedInsts    116879202                       # Number of Instructions Simulated (Count)
testsys.cpu_cluster.cpus0.committedOps      126835704                       # Number of Ops (including micro ops) Simulated (Count)
testsys.cpu_cluster.cpus0.cpi                2.009027                       # CPI: Cycles Per Instruction ((Cycle/Count))
testsys.cpu_cluster.cpus0.totalCpi           2.009027                       # CPI: Total CPI of All Threads ((Cycle/Count))
testsys.cpu_cluster.cpus0.ipc                0.497753                       # IPC: Instructions Per Cycle ((Count/Cycle))
testsys.cpu_cluster.cpus0.totalIpc           0.497753                       # IPC: Total IPC of All Threads ((Count/Cycle))
testsys.cpu_cluster.cpus0.intRegfileReads    164319563                       # Number of integer regfile reads (Count)
testsys.cpu_cluster.cpus0.intRegfileWrites     98344623                       # Number of integer regfile writes (Count)
testsys.cpu_cluster.cpus0.vecRegfileReads        27828                       # number of vector regfile reads (Count)
testsys.cpu_cluster.cpus0.vecRegfileWrites         7087                       # number of vector regfile writes (Count)
testsys.cpu_cluster.cpus0.vecPredRegfileReads           18                       # number of predicate regfile reads (Count)
testsys.cpu_cluster.cpus0.ccRegfileReads     45330876                       # number of cc regfile reads (Count)
testsys.cpu_cluster.cpus0.ccRegfileWrites     44129517                       # number of cc regfile writes (Count)
testsys.cpu_cluster.cpus0.miscRegfileReads    754293316                       # number of misc regfile reads (Count)
testsys.cpu_cluster.cpus0.miscRegfileWrites       435073                       # number of misc regfile writes (Count)
testsys.cpu_cluster.cpus0.MemDepUnit__0.insertedLoads     19980606                       # Number of loads inserted to the mem dependence unit. (Count)
testsys.cpu_cluster.cpus0.MemDepUnit__0.insertedStores     13570543                       # Number of stores inserted to the mem dependence unit. (Count)
testsys.cpu_cluster.cpus0.MemDepUnit__0.conflictingLoads      1014646                       # Number of conflicting loads. (Count)
testsys.cpu_cluster.cpus0.MemDepUnit__0.conflictingStores      1058547                       # Number of conflicting stores. (Count)
testsys.cpu_cluster.cpus0.MemDepUnit__1.insertedLoads            0                       # Number of loads inserted to the mem dependence unit. (Count)
testsys.cpu_cluster.cpus0.MemDepUnit__1.insertedStores            0                       # Number of stores inserted to the mem dependence unit. (Count)
testsys.cpu_cluster.cpus0.MemDepUnit__1.conflictingLoads            0                       # Number of conflicting loads. (Count)
testsys.cpu_cluster.cpus0.MemDepUnit__1.conflictingStores            0                       # Number of conflicting stores. (Count)
testsys.cpu_cluster.cpus0.MemDepUnit__2.insertedLoads            0                       # Number of loads inserted to the mem dependence unit. (Count)
testsys.cpu_cluster.cpus0.MemDepUnit__2.insertedStores            0                       # Number of stores inserted to the mem dependence unit. (Count)
testsys.cpu_cluster.cpus0.MemDepUnit__2.conflictingLoads            0                       # Number of conflicting loads. (Count)
testsys.cpu_cluster.cpus0.MemDepUnit__2.conflictingStores            0                       # Number of conflicting stores. (Count)
testsys.cpu_cluster.cpus0.MemDepUnit__3.insertedLoads            0                       # Number of loads inserted to the mem dependence unit. (Count)
testsys.cpu_cluster.cpus0.MemDepUnit__3.insertedStores            0                       # Number of stores inserted to the mem dependence unit. (Count)
testsys.cpu_cluster.cpus0.MemDepUnit__3.conflictingLoads            0                       # Number of conflicting loads. (Count)
testsys.cpu_cluster.cpus0.MemDepUnit__3.conflictingStores            0                       # Number of conflicting stores. (Count)
testsys.cpu_cluster.cpus0.branchPred.lookups     37612265                       # Number of BP lookups (Count)
testsys.cpu_cluster.cpus0.branchPred.condPredicted     24960458                       # Number of conditional branches predicted (Count)
testsys.cpu_cluster.cpus0.branchPred.condIncorrect       302562                       # Number of conditional branches incorrect (Count)
testsys.cpu_cluster.cpus0.branchPred.BTBLookups     16962111                       # Number of BTB lookups (Count)
testsys.cpu_cluster.cpus0.branchPred.BTBHits     16655648                       # Number of BTB hits (Count)
testsys.cpu_cluster.cpus0.branchPred.BTBHitRatio     0.981932                       # BTB Hit Ratio (Ratio)
testsys.cpu_cluster.cpus0.branchPred.RASUsed      4935817                       # Number of times the RAS was used to get a target. (Count)
testsys.cpu_cluster.cpus0.branchPred.RASIncorrect         4906                       # Number of incorrect RAS predictions. (Count)
testsys.cpu_cluster.cpus0.branchPred.indirectLookups       635530                       # Number of indirect predictor lookups. (Count)
testsys.cpu_cluster.cpus0.branchPred.indirectHits       595029                       # Number of indirect target hits. (Count)
testsys.cpu_cluster.cpus0.branchPred.indirectMisses        40501                       # Number of indirect misses. (Count)
testsys.cpu_cluster.cpus0.branchPred.indirectMispredicted         7194                       # Number of mispredicted indirect branches. (Count)
testsys.cpu_cluster.cpus0.commit.commitSquashedInsts     17266453                       # The number of squashed insts skipped by commit (Count)
testsys.cpu_cluster.cpus0.commit.commitNonSpecStalls      1009690                       # The number of times commit has been forced to stall to communicate backwards (Count)
testsys.cpu_cluster.cpus0.commit.branchMispredicts       233481                       # The number of times a branch was mispredicted (Count)
testsys.cpu_cluster.cpus0.commit.numCommittedDist::samples    167304122                       # Number of insts commited each cycle (Count)
testsys.cpu_cluster.cpus0.commit.numCommittedDist::mean     0.761696                       # Number of insts commited each cycle (Count)
testsys.cpu_cluster.cpus0.commit.numCommittedDist::stdev     1.944464                       # Number of insts commited each cycle (Count)
testsys.cpu_cluster.cpus0.commit.numCommittedDist::underflows            0      0.00%      0.00% # Number of insts commited each cycle (Count)
testsys.cpu_cluster.cpus0.commit.numCommittedDist::0    131945734     78.87%     78.87% # Number of insts commited each cycle (Count)
testsys.cpu_cluster.cpus0.commit.numCommittedDist::1     13527635      8.09%     86.95% # Number of insts commited each cycle (Count)
testsys.cpu_cluster.cpus0.commit.numCommittedDist::2      4408462      2.63%     89.59% # Number of insts commited each cycle (Count)
testsys.cpu_cluster.cpus0.commit.numCommittedDist::3      2426891      1.45%     91.04% # Number of insts commited each cycle (Count)
testsys.cpu_cluster.cpus0.commit.numCommittedDist::4      2326958      1.39%     92.43% # Number of insts commited each cycle (Count)
testsys.cpu_cluster.cpus0.commit.numCommittedDist::5      3021827      1.81%     94.23% # Number of insts commited each cycle (Count)
testsys.cpu_cluster.cpus0.commit.numCommittedDist::6      1586339      0.95%     95.18% # Number of insts commited each cycle (Count)
testsys.cpu_cluster.cpus0.commit.numCommittedDist::7       607522      0.36%     95.55% # Number of insts commited each cycle (Count)
testsys.cpu_cluster.cpus0.commit.numCommittedDist::8      7452754      4.45%    100.00% # Number of insts commited each cycle (Count)
testsys.cpu_cluster.cpus0.commit.numCommittedDist::overflows            0      0.00%    100.00% # Number of insts commited each cycle (Count)
testsys.cpu_cluster.cpus0.commit.numCommittedDist::min_value            0                       # Number of insts commited each cycle (Count)
testsys.cpu_cluster.cpus0.commit.numCommittedDist::max_value            8                       # Number of insts commited each cycle (Count)
testsys.cpu_cluster.cpus0.commit.numCommittedDist::total    167304122                       # Number of insts commited each cycle (Count)
testsys.cpu_cluster.cpus0.commit.instsCommitted    117478417                       # Number of instructions committed (Count)
testsys.cpu_cluster.cpus0.commit.opsCommitted    127434919                       # Number of ops (including micro ops) committed (Count)
testsys.cpu_cluster.cpus0.commit.memRefs     30601864                       # Number of memory references committed (Count)
testsys.cpu_cluster.cpus0.commit.loads       17631154                       # Number of loads committed (Count)
testsys.cpu_cluster.cpus0.commit.amos           57910                       # Number of atomic instructions committed (Count)
testsys.cpu_cluster.cpus0.commit.membars       845640                       # Number of memory barriers committed (Count)
testsys.cpu_cluster.cpus0.commit.branches     26151833                       # Number of branches committed (Count)
testsys.cpu_cluster.cpus0.commit.vectorInstructions        21213                       # Number of committed Vector instructions. (Count)
testsys.cpu_cluster.cpus0.commit.floating            0                       # Number of committed floating point instructions. (Count)
testsys.cpu_cluster.cpus0.commit.integer    112644672                       # Number of committed integer instructions. (Count)
testsys.cpu_cluster.cpus0.commit.functionCalls      3159458                       # Number of function calls committed. (Count)
testsys.cpu_cluster.cpus0.commit.committedInstType_0::No_OpClass        15051      0.01%      0.01% # Class of committed instruction (Count)
testsys.cpu_cluster.cpus0.commit.committedInstType_0::IntAlu     96137527     75.44%     75.45% # Class of committed instruction (Count)
testsys.cpu_cluster.cpus0.commit.committedInstType_0::IntMult       661986      0.52%     75.97% # Class of committed instruction (Count)
testsys.cpu_cluster.cpus0.commit.committedInstType_0::IntDiv         5903      0.00%     75.98% # Class of committed instruction (Count)
testsys.cpu_cluster.cpus0.commit.committedInstType_0::FloatAdd            0      0.00%     75.98% # Class of committed instruction (Count)
testsys.cpu_cluster.cpus0.commit.committedInstType_0::FloatCmp            0      0.00%     75.98% # Class of committed instruction (Count)
testsys.cpu_cluster.cpus0.commit.committedInstType_0::FloatCvt            0      0.00%     75.98% # Class of committed instruction (Count)
testsys.cpu_cluster.cpus0.commit.committedInstType_0::FloatMult            0      0.00%     75.98% # Class of committed instruction (Count)
testsys.cpu_cluster.cpus0.commit.committedInstType_0::FloatMultAcc            0      0.00%     75.98% # Class of committed instruction (Count)
testsys.cpu_cluster.cpus0.commit.committedInstType_0::FloatDiv            0      0.00%     75.98% # Class of committed instruction (Count)
testsys.cpu_cluster.cpus0.commit.committedInstType_0::FloatMisc        12508      0.01%     75.99% # Class of committed instruction (Count)
testsys.cpu_cluster.cpus0.commit.committedInstType_0::FloatSqrt            0      0.00%     75.99% # Class of committed instruction (Count)
testsys.cpu_cluster.cpus0.commit.committedInstType_0::SimdAdd            0      0.00%     75.99% # Class of committed instruction (Count)
testsys.cpu_cluster.cpus0.commit.committedInstType_0::SimdAddAcc            0      0.00%     75.99% # Class of committed instruction (Count)
testsys.cpu_cluster.cpus0.commit.committedInstType_0::SimdAlu            3      0.00%     75.99% # Class of committed instruction (Count)
testsys.cpu_cluster.cpus0.commit.committedInstType_0::SimdCmp            0      0.00%     75.99% # Class of committed instruction (Count)
testsys.cpu_cluster.cpus0.commit.committedInstType_0::SimdCvt            0      0.00%     75.99% # Class of committed instruction (Count)
testsys.cpu_cluster.cpus0.commit.committedInstType_0::SimdMisc           77      0.00%     75.99% # Class of committed instruction (Count)
testsys.cpu_cluster.cpus0.commit.committedInstType_0::SimdMult            0      0.00%     75.99% # Class of committed instruction (Count)
testsys.cpu_cluster.cpus0.commit.committedInstType_0::SimdMultAcc            0      0.00%     75.99% # Class of committed instruction (Count)
testsys.cpu_cluster.cpus0.commit.committedInstType_0::SimdShift            0      0.00%     75.99% # Class of committed instruction (Count)
testsys.cpu_cluster.cpus0.commit.committedInstType_0::SimdShiftAcc            0      0.00%     75.99% # Class of committed instruction (Count)
testsys.cpu_cluster.cpus0.commit.committedInstType_0::SimdDiv            0      0.00%     75.99% # Class of committed instruction (Count)
testsys.cpu_cluster.cpus0.commit.committedInstType_0::SimdSqrt            0      0.00%     75.99% # Class of committed instruction (Count)
testsys.cpu_cluster.cpus0.commit.committedInstType_0::SimdFloatAdd            0      0.00%     75.99% # Class of committed instruction (Count)
testsys.cpu_cluster.cpus0.commit.committedInstType_0::SimdFloatAlu            0      0.00%     75.99% # Class of committed instruction (Count)
testsys.cpu_cluster.cpus0.commit.committedInstType_0::SimdFloatCmp            0      0.00%     75.99% # Class of committed instruction (Count)
testsys.cpu_cluster.cpus0.commit.committedInstType_0::SimdFloatCvt            0      0.00%     75.99% # Class of committed instruction (Count)
testsys.cpu_cluster.cpus0.commit.committedInstType_0::SimdFloatDiv            0      0.00%     75.99% # Class of committed instruction (Count)
testsys.cpu_cluster.cpus0.commit.committedInstType_0::SimdFloatMisc            0      0.00%     75.99% # Class of committed instruction (Count)
testsys.cpu_cluster.cpus0.commit.committedInstType_0::SimdFloatMult            0      0.00%     75.99% # Class of committed instruction (Count)
testsys.cpu_cluster.cpus0.commit.committedInstType_0::SimdFloatMultAcc            0      0.00%     75.99% # Class of committed instruction (Count)
testsys.cpu_cluster.cpus0.commit.committedInstType_0::SimdFloatSqrt            0      0.00%     75.99% # Class of committed instruction (Count)
testsys.cpu_cluster.cpus0.commit.committedInstType_0::SimdReduceAdd            0      0.00%     75.99% # Class of committed instruction (Count)
testsys.cpu_cluster.cpus0.commit.committedInstType_0::SimdReduceAlu            0      0.00%     75.99% # Class of committed instruction (Count)
testsys.cpu_cluster.cpus0.commit.committedInstType_0::SimdReduceCmp            0      0.00%     75.99% # Class of committed instruction (Count)
testsys.cpu_cluster.cpus0.commit.committedInstType_0::SimdFloatReduceAdd            0      0.00%     75.99% # Class of committed instruction (Count)
testsys.cpu_cluster.cpus0.commit.committedInstType_0::SimdFloatReduceCmp            0      0.00%     75.99% # Class of committed instruction (Count)
testsys.cpu_cluster.cpus0.commit.committedInstType_0::SimdAes            0      0.00%     75.99% # Class of committed instruction (Count)
testsys.cpu_cluster.cpus0.commit.committedInstType_0::SimdAesMix            0      0.00%     75.99% # Class of committed instruction (Count)
testsys.cpu_cluster.cpus0.commit.committedInstType_0::SimdSha1Hash            0      0.00%     75.99% # Class of committed instruction (Count)
testsys.cpu_cluster.cpus0.commit.committedInstType_0::SimdSha1Hash2            0      0.00%     75.99% # Class of committed instruction (Count)
testsys.cpu_cluster.cpus0.commit.committedInstType_0::SimdSha256Hash            0      0.00%     75.99% # Class of committed instruction (Count)
testsys.cpu_cluster.cpus0.commit.committedInstType_0::SimdSha256Hash2            0      0.00%     75.99% # Class of committed instruction (Count)
testsys.cpu_cluster.cpus0.commit.committedInstType_0::SimdShaSigma2            0      0.00%     75.99% # Class of committed instruction (Count)
testsys.cpu_cluster.cpus0.commit.committedInstType_0::SimdShaSigma3            0      0.00%     75.99% # Class of committed instruction (Count)
testsys.cpu_cluster.cpus0.commit.committedInstType_0::SimdPredAlu            0      0.00%     75.99% # Class of committed instruction (Count)
testsys.cpu_cluster.cpus0.commit.committedInstType_0::MemRead     17631154     13.84%     89.82% # Class of committed instruction (Count)
testsys.cpu_cluster.cpus0.commit.committedInstType_0::MemWrite     12970710     10.18%    100.00% # Class of committed instruction (Count)
testsys.cpu_cluster.cpus0.commit.committedInstType_0::FloatMemRead            0      0.00%    100.00% # Class of committed instruction (Count)
testsys.cpu_cluster.cpus0.commit.committedInstType_0::FloatMemWrite            0      0.00%    100.00% # Class of committed instruction (Count)
testsys.cpu_cluster.cpus0.commit.committedInstType_0::IprAccess            0      0.00%    100.00% # Class of committed instruction (Count)
testsys.cpu_cluster.cpus0.commit.committedInstType_0::InstPrefetch            0      0.00%    100.00% # Class of committed instruction (Count)
testsys.cpu_cluster.cpus0.commit.committedInstType_0::total    127434919                       # Class of committed instruction (Count)
testsys.cpu_cluster.cpus0.commit.commitEligibleSamples      7452754                       # number cycles where commit BW limit reached (Cycle)
testsys.cpu_cluster.cpus0.dcache.demandHits::cpu_cluster.cpus0.data     21468374                       # number of demand (read+write) hits (Count)
testsys.cpu_cluster.cpus0.dcache.demandHits::total     21468374                       # number of demand (read+write) hits (Count)
testsys.cpu_cluster.cpus0.dcache.overallHits::cpu_cluster.cpus0.data     21526235                       # number of overall hits (Count)
testsys.cpu_cluster.cpus0.dcache.overallHits::total     21526235                       # number of overall hits (Count)
testsys.cpu_cluster.cpus0.dcache.demandMisses::cpu_cluster.cpus0.data      8952604                       # number of demand (read+write) misses (Count)
testsys.cpu_cluster.cpus0.dcache.demandMisses::total      8952604                       # number of demand (read+write) misses (Count)
testsys.cpu_cluster.cpus0.dcache.overallMisses::cpu_cluster.cpus0.data      9457704                       # number of overall misses (Count)
testsys.cpu_cluster.cpus0.dcache.overallMisses::total      9457704                       # number of overall misses (Count)
testsys.cpu_cluster.cpus0.dcache.demandMissLatency::cpu_cluster.cpus0.data 399331536270                       # number of demand (read+write) miss ticks (Tick)
testsys.cpu_cluster.cpus0.dcache.demandMissLatency::total 399331536270                       # number of demand (read+write) miss ticks (Tick)
testsys.cpu_cluster.cpus0.dcache.overallMissLatency::cpu_cluster.cpus0.data 399331536270                       # number of overall miss ticks (Tick)
testsys.cpu_cluster.cpus0.dcache.overallMissLatency::total 399331536270                       # number of overall miss ticks (Tick)
testsys.cpu_cluster.cpus0.dcache.demandAccesses::cpu_cluster.cpus0.data     30420978                       # number of demand (read+write) accesses (Count)
testsys.cpu_cluster.cpus0.dcache.demandAccesses::total     30420978                       # number of demand (read+write) accesses (Count)
testsys.cpu_cluster.cpus0.dcache.overallAccesses::cpu_cluster.cpus0.data     30983939                       # number of overall (read+write) accesses (Count)
testsys.cpu_cluster.cpus0.dcache.overallAccesses::total     30983939                       # number of overall (read+write) accesses (Count)
testsys.cpu_cluster.cpus0.dcache.demandMissRate::cpu_cluster.cpus0.data     0.294290                       # miss rate for demand accesses (Ratio)
testsys.cpu_cluster.cpus0.dcache.demandMissRate::total     0.294290                       # miss rate for demand accesses (Ratio)
testsys.cpu_cluster.cpus0.dcache.overallMissRate::cpu_cluster.cpus0.data     0.305245                       # miss rate for overall accesses (Ratio)
testsys.cpu_cluster.cpus0.dcache.overallMissRate::total     0.305245                       # miss rate for overall accesses (Ratio)
testsys.cpu_cluster.cpus0.dcache.demandAvgMissLatency::cpu_cluster.cpus0.data 44605.070912                       # average overall miss latency ((Cycle/Count))
testsys.cpu_cluster.cpus0.dcache.demandAvgMissLatency::total 44605.070912                       # average overall miss latency ((Cycle/Count))
testsys.cpu_cluster.cpus0.dcache.overallAvgMissLatency::cpu_cluster.cpus0.data 42222.883722                       # average overall miss latency ((Cycle/Count))
testsys.cpu_cluster.cpus0.dcache.overallAvgMissLatency::total 42222.883722                       # average overall miss latency ((Cycle/Count))
testsys.cpu_cluster.cpus0.dcache.blockedCycles::no_mshrs     20899705                       # number of cycles access was blocked (Cycle)
testsys.cpu_cluster.cpus0.dcache.blockedCycles::no_targets       120343                       # number of cycles access was blocked (Cycle)
testsys.cpu_cluster.cpus0.dcache.blockedCauses::no_mshrs       623700                       # number of times access was blocked (Count)
testsys.cpu_cluster.cpus0.dcache.blockedCauses::no_targets          821                       # number of times access was blocked (Count)
testsys.cpu_cluster.cpus0.dcache.avgBlocked::no_mshrs    33.509227                       # average number of cycles each access was blocked ((Cycle/Count))
testsys.cpu_cluster.cpus0.dcache.avgBlocked::no_targets   146.580999                       # average number of cycles each access was blocked ((Cycle/Count))
testsys.cpu_cluster.cpus0.dcache.writebacks::writebacks      1878934                       # number of writebacks (Count)
testsys.cpu_cluster.cpus0.dcache.writebacks::total      1878934                       # number of writebacks (Count)
testsys.cpu_cluster.cpus0.dcache.demandMshrHits::cpu_cluster.cpus0.data      7344093                       # number of demand (read+write) MSHR hits (Count)
testsys.cpu_cluster.cpus0.dcache.demandMshrHits::total      7344093                       # number of demand (read+write) MSHR hits (Count)
testsys.cpu_cluster.cpus0.dcache.overallMshrHits::cpu_cluster.cpus0.data      7344093                       # number of overall MSHR hits (Count)
testsys.cpu_cluster.cpus0.dcache.overallMshrHits::total      7344093                       # number of overall MSHR hits (Count)
testsys.cpu_cluster.cpus0.dcache.demandMshrMisses::cpu_cluster.cpus0.data      1608511                       # number of demand (read+write) MSHR misses (Count)
testsys.cpu_cluster.cpus0.dcache.demandMshrMisses::total      1608511                       # number of demand (read+write) MSHR misses (Count)
testsys.cpu_cluster.cpus0.dcache.overallMshrMisses::cpu_cluster.cpus0.data      2112451                       # number of overall MSHR misses (Count)
testsys.cpu_cluster.cpus0.dcache.overallMshrMisses::total      2112451                       # number of overall MSHR misses (Count)
testsys.cpu_cluster.cpus0.dcache.overallMshrUncacheable::cpu_cluster.cpus0.data         5780                       # number of overall MSHR uncacheable misses (Count)
testsys.cpu_cluster.cpus0.dcache.overallMshrUncacheable::total         5780                       # number of overall MSHR uncacheable misses (Count)
testsys.cpu_cluster.cpus0.dcache.demandMshrMissLatency::cpu_cluster.cpus0.data  60436298151                       # number of demand (read+write) MSHR miss ticks (Tick)
testsys.cpu_cluster.cpus0.dcache.demandMshrMissLatency::total  60436298151                       # number of demand (read+write) MSHR miss ticks (Tick)
testsys.cpu_cluster.cpus0.dcache.overallMshrMissLatency::cpu_cluster.cpus0.data 137845686401                       # number of overall MSHR miss ticks (Tick)
testsys.cpu_cluster.cpus0.dcache.overallMshrMissLatency::total 137845686401                       # number of overall MSHR miss ticks (Tick)
testsys.cpu_cluster.cpus0.dcache.overallMshrUncacheableLatency::cpu_cluster.cpus0.data    171014750                       # number of overall MSHR uncacheable ticks (Tick)
testsys.cpu_cluster.cpus0.dcache.overallMshrUncacheableLatency::total    171014750                       # number of overall MSHR uncacheable ticks (Tick)
testsys.cpu_cluster.cpus0.dcache.demandMshrMissRate::cpu_cluster.cpus0.data     0.052875                       # mshr miss ratio for demand accesses (Ratio)
testsys.cpu_cluster.cpus0.dcache.demandMshrMissRate::total     0.052875                       # mshr miss ratio for demand accesses (Ratio)
testsys.cpu_cluster.cpus0.dcache.overallMshrMissRate::cpu_cluster.cpus0.data     0.068179                       # mshr miss ratio for overall accesses (Ratio)
testsys.cpu_cluster.cpus0.dcache.overallMshrMissRate::total     0.068179                       # mshr miss ratio for overall accesses (Ratio)
testsys.cpu_cluster.cpus0.dcache.demandAvgMshrMissLatency::cpu_cluster.cpus0.data 37572.822412                       # average overall mshr miss latency ((Cycle/Count))
testsys.cpu_cluster.cpus0.dcache.demandAvgMshrMissLatency::total 37572.822412                       # average overall mshr miss latency ((Cycle/Count))
testsys.cpu_cluster.cpus0.dcache.overallAvgMshrMissLatency::cpu_cluster.cpus0.data 65253.909511                       # average overall mshr miss latency ((Cycle/Count))
testsys.cpu_cluster.cpus0.dcache.overallAvgMshrMissLatency::total 65253.909511                       # average overall mshr miss latency ((Cycle/Count))
testsys.cpu_cluster.cpus0.dcache.overallAvgMshrUncacheableLatency::cpu_cluster.cpus0.data 29587.326990                       # average overall mshr uncacheable latency ((Cycle/Count))
testsys.cpu_cluster.cpus0.dcache.overallAvgMshrUncacheableLatency::total 29587.326990                       # average overall mshr uncacheable latency ((Cycle/Count))
testsys.cpu_cluster.cpus0.dcache.replacements      2033785                       # number of replacements (Count)
testsys.cpu_cluster.cpus0.dcache.CleanInvalidReq.missLatency::cpu_cluster.cpus0.data    709326000                       # number of CleanInvalidReq miss ticks (Tick)
testsys.cpu_cluster.cpus0.dcache.CleanInvalidReq.missLatency::total    709326000                       # number of CleanInvalidReq miss ticks (Tick)
testsys.cpu_cluster.cpus0.dcache.CleanInvalidReq.avgMissLatency::cpu_cluster.cpus0.data          inf                       # average CleanInvalidReq miss latency ((Tick/Count))
testsys.cpu_cluster.cpus0.dcache.CleanInvalidReq.avgMissLatency::total          inf                       # average CleanInvalidReq miss latency ((Tick/Count))
testsys.cpu_cluster.cpus0.dcache.CleanInvalidReq.mshrHits::cpu_cluster.cpus0.data        11780                       # number of CleanInvalidReq MSHR hits (Count)
testsys.cpu_cluster.cpus0.dcache.CleanInvalidReq.mshrHits::total        11780                       # number of CleanInvalidReq MSHR hits (Count)
testsys.cpu_cluster.cpus0.dcache.CleanInvalidReq.mshrMisses::cpu_cluster.cpus0.data         1747                       # number of CleanInvalidReq MSHR misses (Count)
testsys.cpu_cluster.cpus0.dcache.CleanInvalidReq.mshrMisses::total         1747                       # number of CleanInvalidReq MSHR misses (Count)
testsys.cpu_cluster.cpus0.dcache.CleanInvalidReq.mshrMissLatency::cpu_cluster.cpus0.data    706317500                       # number of CleanInvalidReq MSHR miss ticks (Tick)
testsys.cpu_cluster.cpus0.dcache.CleanInvalidReq.mshrMissLatency::total    706317500                       # number of CleanInvalidReq MSHR miss ticks (Tick)
testsys.cpu_cluster.cpus0.dcache.CleanInvalidReq.mshrMissRate::cpu_cluster.cpus0.data          inf                       # mshr miss rate for CleanInvalidReq accesses (Ratio)
testsys.cpu_cluster.cpus0.dcache.CleanInvalidReq.mshrMissRate::total          inf                       # mshr miss rate for CleanInvalidReq accesses (Ratio)
testsys.cpu_cluster.cpus0.dcache.CleanInvalidReq.avgMshrMissLatency::cpu_cluster.cpus0.data 404303.091013                       # average CleanInvalidReq mshr miss latency ((Tick/Count))
testsys.cpu_cluster.cpus0.dcache.CleanInvalidReq.avgMshrMissLatency::total 404303.091013                       # average CleanInvalidReq mshr miss latency ((Tick/Count))
testsys.cpu_cluster.cpus0.dcache.CleanSharedReq.missLatency::cpu_cluster.cpus0.data     17643750                       # number of CleanSharedReq miss ticks (Tick)
testsys.cpu_cluster.cpus0.dcache.CleanSharedReq.missLatency::total     17643750                       # number of CleanSharedReq miss ticks (Tick)
testsys.cpu_cluster.cpus0.dcache.CleanSharedReq.avgMissLatency::cpu_cluster.cpus0.data          inf                       # average CleanSharedReq miss latency ((Tick/Count))
testsys.cpu_cluster.cpus0.dcache.CleanSharedReq.avgMissLatency::total          inf                       # average CleanSharedReq miss latency ((Tick/Count))
testsys.cpu_cluster.cpus0.dcache.CleanSharedReq.mshrMisses::cpu_cluster.cpus0.data        14115                       # number of CleanSharedReq MSHR misses (Count)
testsys.cpu_cluster.cpus0.dcache.CleanSharedReq.mshrMisses::total        14115                       # number of CleanSharedReq MSHR misses (Count)
testsys.cpu_cluster.cpus0.dcache.CleanSharedReq.mshrMissLatency::cpu_cluster.cpus0.data     10600365                       # number of CleanSharedReq MSHR miss ticks (Tick)
testsys.cpu_cluster.cpus0.dcache.CleanSharedReq.mshrMissLatency::total     10600365                       # number of CleanSharedReq MSHR miss ticks (Tick)
testsys.cpu_cluster.cpus0.dcache.CleanSharedReq.mshrMissRate::cpu_cluster.cpus0.data          inf                       # mshr miss rate for CleanSharedReq accesses (Ratio)
testsys.cpu_cluster.cpus0.dcache.CleanSharedReq.mshrMissRate::total          inf                       # mshr miss rate for CleanSharedReq accesses (Ratio)
testsys.cpu_cluster.cpus0.dcache.CleanSharedReq.avgMshrMissLatency::cpu_cluster.cpus0.data          751                       # average CleanSharedReq mshr miss latency ((Tick/Count))
testsys.cpu_cluster.cpus0.dcache.CleanSharedReq.avgMshrMissLatency::total          751                       # average CleanSharedReq mshr miss latency ((Tick/Count))
testsys.cpu_cluster.cpus0.dcache.InvalidateReq.mshrMisses::cpu_cluster.cpus0.data       119812                       # number of InvalidateReq MSHR misses (Count)
testsys.cpu_cluster.cpus0.dcache.InvalidateReq.mshrMisses::total       119812                       # number of InvalidateReq MSHR misses (Count)
testsys.cpu_cluster.cpus0.dcache.InvalidateReq.mshrMissLatency::cpu_cluster.cpus0.data   1587512000                       # number of InvalidateReq MSHR miss ticks (Tick)
testsys.cpu_cluster.cpus0.dcache.InvalidateReq.mshrMissLatency::total   1587512000                       # number of InvalidateReq MSHR miss ticks (Tick)
testsys.cpu_cluster.cpus0.dcache.InvalidateReq.mshrMissRate::cpu_cluster.cpus0.data          inf                       # mshr miss rate for InvalidateReq accesses (Ratio)
testsys.cpu_cluster.cpus0.dcache.InvalidateReq.mshrMissRate::total          inf                       # mshr miss rate for InvalidateReq accesses (Ratio)
testsys.cpu_cluster.cpus0.dcache.InvalidateReq.avgMshrMissLatency::cpu_cluster.cpus0.data 13250.025039                       # average InvalidateReq mshr miss latency ((Tick/Count))
testsys.cpu_cluster.cpus0.dcache.InvalidateReq.avgMshrMissLatency::total 13250.025039                       # average InvalidateReq mshr miss latency ((Tick/Count))
testsys.cpu_cluster.cpus0.dcache.LoadLockedReq.hits::cpu_cluster.cpus0.data        58234                       # number of LoadLockedReq hits (Count)
testsys.cpu_cluster.cpus0.dcache.LoadLockedReq.hits::total        58234                       # number of LoadLockedReq hits (Count)
testsys.cpu_cluster.cpus0.dcache.LoadLockedReq.misses::cpu_cluster.cpus0.data         4427                       # number of LoadLockedReq misses (Count)
testsys.cpu_cluster.cpus0.dcache.LoadLockedReq.misses::total         4427                       # number of LoadLockedReq misses (Count)
testsys.cpu_cluster.cpus0.dcache.LoadLockedReq.missLatency::cpu_cluster.cpus0.data     31455250                       # number of LoadLockedReq miss ticks (Tick)
testsys.cpu_cluster.cpus0.dcache.LoadLockedReq.missLatency::total     31455250                       # number of LoadLockedReq miss ticks (Tick)
testsys.cpu_cluster.cpus0.dcache.LoadLockedReq.accesses::cpu_cluster.cpus0.data        62661                       # number of LoadLockedReq accesses(hits+misses) (Count)
testsys.cpu_cluster.cpus0.dcache.LoadLockedReq.accesses::total        62661                       # number of LoadLockedReq accesses(hits+misses) (Count)
testsys.cpu_cluster.cpus0.dcache.LoadLockedReq.missRate::cpu_cluster.cpus0.data     0.070650                       # miss rate for LoadLockedReq accesses (Ratio)
testsys.cpu_cluster.cpus0.dcache.LoadLockedReq.missRate::total     0.070650                       # miss rate for LoadLockedReq accesses (Ratio)
testsys.cpu_cluster.cpus0.dcache.LoadLockedReq.avgMissLatency::cpu_cluster.cpus0.data  7105.319630                       # average LoadLockedReq miss latency ((Tick/Count))
testsys.cpu_cluster.cpus0.dcache.LoadLockedReq.avgMissLatency::total  7105.319630                       # average LoadLockedReq miss latency ((Tick/Count))
testsys.cpu_cluster.cpus0.dcache.LoadLockedReq.mshrHits::cpu_cluster.cpus0.data         4102                       # number of LoadLockedReq MSHR hits (Count)
testsys.cpu_cluster.cpus0.dcache.LoadLockedReq.mshrHits::total         4102                       # number of LoadLockedReq MSHR hits (Count)
testsys.cpu_cluster.cpus0.dcache.LoadLockedReq.mshrMisses::cpu_cluster.cpus0.data          325                       # number of LoadLockedReq MSHR misses (Count)
testsys.cpu_cluster.cpus0.dcache.LoadLockedReq.mshrMisses::total          325                       # number of LoadLockedReq MSHR misses (Count)
testsys.cpu_cluster.cpus0.dcache.LoadLockedReq.mshrMissLatency::cpu_cluster.cpus0.data      4942000                       # number of LoadLockedReq MSHR miss ticks (Tick)
testsys.cpu_cluster.cpus0.dcache.LoadLockedReq.mshrMissLatency::total      4942000                       # number of LoadLockedReq MSHR miss ticks (Tick)
testsys.cpu_cluster.cpus0.dcache.LoadLockedReq.mshrMissRate::cpu_cluster.cpus0.data     0.005187                       # mshr miss rate for LoadLockedReq accesses (Ratio)
testsys.cpu_cluster.cpus0.dcache.LoadLockedReq.mshrMissRate::total     0.005187                       # mshr miss rate for LoadLockedReq accesses (Ratio)
testsys.cpu_cluster.cpus0.dcache.LoadLockedReq.avgMshrMissLatency::cpu_cluster.cpus0.data 15206.153846                       # average LoadLockedReq mshr miss latency ((Tick/Count))
testsys.cpu_cluster.cpus0.dcache.LoadLockedReq.avgMshrMissLatency::total 15206.153846                       # average LoadLockedReq mshr miss latency ((Tick/Count))
testsys.cpu_cluster.cpus0.dcache.ReadReq.hits::cpu_cluster.cpus0.data     14013030                       # number of ReadReq hits (Count)
testsys.cpu_cluster.cpus0.dcache.ReadReq.hits::total     14013030                       # number of ReadReq hits (Count)
testsys.cpu_cluster.cpus0.dcache.ReadReq.misses::cpu_cluster.cpus0.data      3692582                       # number of ReadReq misses (Count)
testsys.cpu_cluster.cpus0.dcache.ReadReq.misses::total      3692582                       # number of ReadReq misses (Count)
testsys.cpu_cluster.cpus0.dcache.ReadReq.missLatency::cpu_cluster.cpus0.data 122047283750                       # number of ReadReq miss ticks (Tick)
testsys.cpu_cluster.cpus0.dcache.ReadReq.missLatency::total 122047283750                       # number of ReadReq miss ticks (Tick)
testsys.cpu_cluster.cpus0.dcache.ReadReq.accesses::cpu_cluster.cpus0.data     17705612                       # number of ReadReq accesses(hits+misses) (Count)
testsys.cpu_cluster.cpus0.dcache.ReadReq.accesses::total     17705612                       # number of ReadReq accesses(hits+misses) (Count)
testsys.cpu_cluster.cpus0.dcache.ReadReq.missRate::cpu_cluster.cpus0.data     0.208554                       # miss rate for ReadReq accesses (Ratio)
testsys.cpu_cluster.cpus0.dcache.ReadReq.missRate::total     0.208554                       # miss rate for ReadReq accesses (Ratio)
testsys.cpu_cluster.cpus0.dcache.ReadReq.avgMissLatency::cpu_cluster.cpus0.data 33052.017193                       # average ReadReq miss latency ((Tick/Count))
testsys.cpu_cluster.cpus0.dcache.ReadReq.avgMissLatency::total 33052.017193                       # average ReadReq miss latency ((Tick/Count))
testsys.cpu_cluster.cpus0.dcache.ReadReq.mshrHits::cpu_cluster.cpus0.data      2923296                       # number of ReadReq MSHR hits (Count)
testsys.cpu_cluster.cpus0.dcache.ReadReq.mshrHits::total      2923296                       # number of ReadReq MSHR hits (Count)
testsys.cpu_cluster.cpus0.dcache.ReadReq.mshrMisses::cpu_cluster.cpus0.data       769286                       # number of ReadReq MSHR misses (Count)
testsys.cpu_cluster.cpus0.dcache.ReadReq.mshrMisses::total       769286                       # number of ReadReq MSHR misses (Count)
testsys.cpu_cluster.cpus0.dcache.ReadReq.mshrUncacheable::cpu_cluster.cpus0.data         1687                       # number of ReadReq MSHR uncacheable (Count)
testsys.cpu_cluster.cpus0.dcache.ReadReq.mshrUncacheable::total         1687                       # number of ReadReq MSHR uncacheable (Count)
testsys.cpu_cluster.cpus0.dcache.ReadReq.mshrMissLatency::cpu_cluster.cpus0.data  14527431250                       # number of ReadReq MSHR miss ticks (Tick)
testsys.cpu_cluster.cpus0.dcache.ReadReq.mshrMissLatency::total  14527431250                       # number of ReadReq MSHR miss ticks (Tick)
testsys.cpu_cluster.cpus0.dcache.ReadReq.mshrUncacheableLatency::cpu_cluster.cpus0.data    171014750                       # number of ReadReq MSHR uncacheable ticks (Tick)
testsys.cpu_cluster.cpus0.dcache.ReadReq.mshrUncacheableLatency::total    171014750                       # number of ReadReq MSHR uncacheable ticks (Tick)
testsys.cpu_cluster.cpus0.dcache.ReadReq.mshrMissRate::cpu_cluster.cpus0.data     0.043449                       # mshr miss rate for ReadReq accesses (Ratio)
testsys.cpu_cluster.cpus0.dcache.ReadReq.mshrMissRate::total     0.043449                       # mshr miss rate for ReadReq accesses (Ratio)
testsys.cpu_cluster.cpus0.dcache.ReadReq.avgMshrMissLatency::cpu_cluster.cpus0.data 18884.304732                       # average ReadReq mshr miss latency ((Tick/Count))
testsys.cpu_cluster.cpus0.dcache.ReadReq.avgMshrMissLatency::total 18884.304732                       # average ReadReq mshr miss latency ((Tick/Count))
testsys.cpu_cluster.cpus0.dcache.ReadReq.avgMshrUncacheableLatency::cpu_cluster.cpus0.data 101372.110255                       # average ReadReq mshr uncacheable latency ((Tick/Count))
testsys.cpu_cluster.cpus0.dcache.ReadReq.avgMshrUncacheableLatency::total 101372.110255                       # average ReadReq mshr uncacheable latency ((Tick/Count))
testsys.cpu_cluster.cpus0.dcache.SoftPFExReq.hits::cpu_cluster.cpus0.data        56395                       # number of SoftPFExReq hits (Count)
testsys.cpu_cluster.cpus0.dcache.SoftPFExReq.hits::total        56395                       # number of SoftPFExReq hits (Count)
testsys.cpu_cluster.cpus0.dcache.SoftPFExReq.misses::cpu_cluster.cpus0.data       503611                       # number of SoftPFExReq misses (Count)
testsys.cpu_cluster.cpus0.dcache.SoftPFExReq.misses::total       503611                       # number of SoftPFExReq misses (Count)
testsys.cpu_cluster.cpus0.dcache.SoftPFExReq.accesses::cpu_cluster.cpus0.data       560006                       # number of SoftPFExReq accesses(hits+misses) (Count)
testsys.cpu_cluster.cpus0.dcache.SoftPFExReq.accesses::total       560006                       # number of SoftPFExReq accesses(hits+misses) (Count)
testsys.cpu_cluster.cpus0.dcache.SoftPFExReq.missRate::cpu_cluster.cpus0.data     0.899296                       # miss rate for SoftPFExReq accesses (Ratio)
testsys.cpu_cluster.cpus0.dcache.SoftPFExReq.missRate::total     0.899296                       # miss rate for SoftPFExReq accesses (Ratio)
testsys.cpu_cluster.cpus0.dcache.SoftPFExReq.mshrMisses::cpu_cluster.cpus0.data       502472                       # number of SoftPFExReq MSHR misses (Count)
testsys.cpu_cluster.cpus0.dcache.SoftPFExReq.mshrMisses::total       502472                       # number of SoftPFExReq MSHR misses (Count)
testsys.cpu_cluster.cpus0.dcache.SoftPFExReq.mshrMissLatency::cpu_cluster.cpus0.data  77372185500                       # number of SoftPFExReq MSHR miss ticks (Tick)
testsys.cpu_cluster.cpus0.dcache.SoftPFExReq.mshrMissLatency::total  77372185500                       # number of SoftPFExReq MSHR miss ticks (Tick)
testsys.cpu_cluster.cpus0.dcache.SoftPFExReq.mshrMissRate::cpu_cluster.cpus0.data     0.897262                       # mshr miss rate for SoftPFExReq accesses (Ratio)
testsys.cpu_cluster.cpus0.dcache.SoftPFExReq.mshrMissRate::total     0.897262                       # mshr miss rate for SoftPFExReq accesses (Ratio)
testsys.cpu_cluster.cpus0.dcache.SoftPFExReq.avgMshrMissLatency::cpu_cluster.cpus0.data 153983.078659                       # average SoftPFExReq mshr miss latency ((Tick/Count))
testsys.cpu_cluster.cpus0.dcache.SoftPFExReq.avgMshrMissLatency::total 153983.078659                       # average SoftPFExReq mshr miss latency ((Tick/Count))
testsys.cpu_cluster.cpus0.dcache.SoftPFReq.hits::cpu_cluster.cpus0.data         1466                       # number of SoftPFReq hits (Count)
testsys.cpu_cluster.cpus0.dcache.SoftPFReq.hits::total         1466                       # number of SoftPFReq hits (Count)
testsys.cpu_cluster.cpus0.dcache.SoftPFReq.misses::cpu_cluster.cpus0.data         1489                       # number of SoftPFReq misses (Count)
testsys.cpu_cluster.cpus0.dcache.SoftPFReq.misses::total         1489                       # number of SoftPFReq misses (Count)
testsys.cpu_cluster.cpus0.dcache.SoftPFReq.accesses::cpu_cluster.cpus0.data         2955                       # number of SoftPFReq accesses(hits+misses) (Count)
testsys.cpu_cluster.cpus0.dcache.SoftPFReq.accesses::total         2955                       # number of SoftPFReq accesses(hits+misses) (Count)
testsys.cpu_cluster.cpus0.dcache.SoftPFReq.missRate::cpu_cluster.cpus0.data     0.503892                       # miss rate for SoftPFReq accesses (Ratio)
testsys.cpu_cluster.cpus0.dcache.SoftPFReq.missRate::total     0.503892                       # miss rate for SoftPFReq accesses (Ratio)
testsys.cpu_cluster.cpus0.dcache.SoftPFReq.mshrMisses::cpu_cluster.cpus0.data         1468                       # number of SoftPFReq MSHR misses (Count)
testsys.cpu_cluster.cpus0.dcache.SoftPFReq.mshrMisses::total         1468                       # number of SoftPFReq MSHR misses (Count)
testsys.cpu_cluster.cpus0.dcache.SoftPFReq.mshrMissLatency::cpu_cluster.cpus0.data     37202750                       # number of SoftPFReq MSHR miss ticks (Tick)
testsys.cpu_cluster.cpus0.dcache.SoftPFReq.mshrMissLatency::total     37202750                       # number of SoftPFReq MSHR miss ticks (Tick)
testsys.cpu_cluster.cpus0.dcache.SoftPFReq.mshrMissRate::cpu_cluster.cpus0.data     0.496785                       # mshr miss rate for SoftPFReq accesses (Ratio)
testsys.cpu_cluster.cpus0.dcache.SoftPFReq.mshrMissRate::total     0.496785                       # mshr miss rate for SoftPFReq accesses (Ratio)
testsys.cpu_cluster.cpus0.dcache.SoftPFReq.avgMshrMissLatency::cpu_cluster.cpus0.data 25342.472752                       # average SoftPFReq mshr miss latency ((Tick/Count))
testsys.cpu_cluster.cpus0.dcache.SoftPFReq.avgMshrMissLatency::total 25342.472752                       # average SoftPFReq mshr miss latency ((Tick/Count))
testsys.cpu_cluster.cpus0.dcache.StoreCondReq.hits::cpu_cluster.cpus0.data        46226                       # number of StoreCondReq hits (Count)
testsys.cpu_cluster.cpus0.dcache.StoreCondReq.hits::total        46226                       # number of StoreCondReq hits (Count)
testsys.cpu_cluster.cpus0.dcache.StoreCondReq.misses::cpu_cluster.cpus0.data           30                       # number of StoreCondReq misses (Count)
testsys.cpu_cluster.cpus0.dcache.StoreCondReq.misses::total           30                       # number of StoreCondReq misses (Count)
testsys.cpu_cluster.cpus0.dcache.StoreCondReq.missLatency::cpu_cluster.cpus0.data       101500                       # number of StoreCondReq miss ticks (Tick)
testsys.cpu_cluster.cpus0.dcache.StoreCondReq.missLatency::total       101500                       # number of StoreCondReq miss ticks (Tick)
testsys.cpu_cluster.cpus0.dcache.StoreCondReq.accesses::cpu_cluster.cpus0.data        46256                       # number of StoreCondReq accesses(hits+misses) (Count)
testsys.cpu_cluster.cpus0.dcache.StoreCondReq.accesses::total        46256                       # number of StoreCondReq accesses(hits+misses) (Count)
testsys.cpu_cluster.cpus0.dcache.StoreCondReq.missRate::cpu_cluster.cpus0.data     0.000649                       # miss rate for StoreCondReq accesses (Ratio)
testsys.cpu_cluster.cpus0.dcache.StoreCondReq.missRate::total     0.000649                       # miss rate for StoreCondReq accesses (Ratio)
testsys.cpu_cluster.cpus0.dcache.StoreCondReq.avgMissLatency::cpu_cluster.cpus0.data  3383.333333                       # average StoreCondReq miss latency ((Tick/Count))
testsys.cpu_cluster.cpus0.dcache.StoreCondReq.avgMissLatency::total  3383.333333                       # average StoreCondReq miss latency ((Tick/Count))
testsys.cpu_cluster.cpus0.dcache.StoreCondReq.mshrMisses::cpu_cluster.cpus0.data           30                       # number of StoreCondReq MSHR misses (Count)
testsys.cpu_cluster.cpus0.dcache.StoreCondReq.mshrMisses::total           30                       # number of StoreCondReq MSHR misses (Count)
testsys.cpu_cluster.cpus0.dcache.StoreCondReq.mshrMissLatency::cpu_cluster.cpus0.data        94000                       # number of StoreCondReq MSHR miss ticks (Tick)
testsys.cpu_cluster.cpus0.dcache.StoreCondReq.mshrMissLatency::total        94000                       # number of StoreCondReq MSHR miss ticks (Tick)
testsys.cpu_cluster.cpus0.dcache.StoreCondReq.mshrMissRate::cpu_cluster.cpus0.data     0.000649                       # mshr miss rate for StoreCondReq accesses (Ratio)
testsys.cpu_cluster.cpus0.dcache.StoreCondReq.mshrMissRate::total     0.000649                       # mshr miss rate for StoreCondReq accesses (Ratio)
testsys.cpu_cluster.cpus0.dcache.StoreCondReq.avgMshrMissLatency::cpu_cluster.cpus0.data  3133.333333                       # average StoreCondReq mshr miss latency ((Tick/Count))
testsys.cpu_cluster.cpus0.dcache.StoreCondReq.avgMshrMissLatency::total  3133.333333                       # average StoreCondReq mshr miss latency ((Tick/Count))
testsys.cpu_cluster.cpus0.dcache.SwapReq.hits::cpu_cluster.cpus0.data        53005                       # number of SwapReq hits (Count)
testsys.cpu_cluster.cpus0.dcache.SwapReq.hits::total        53005                       # number of SwapReq hits (Count)
testsys.cpu_cluster.cpus0.dcache.SwapReq.misses::cpu_cluster.cpus0.data         4905                       # number of SwapReq misses (Count)
testsys.cpu_cluster.cpus0.dcache.SwapReq.misses::total         4905                       # number of SwapReq misses (Count)
testsys.cpu_cluster.cpus0.dcache.SwapReq.missLatency::cpu_cluster.cpus0.data     36697250                       # number of SwapReq miss ticks (Tick)
testsys.cpu_cluster.cpus0.dcache.SwapReq.missLatency::total     36697250                       # number of SwapReq miss ticks (Tick)
testsys.cpu_cluster.cpus0.dcache.SwapReq.accesses::cpu_cluster.cpus0.data        57910                       # number of SwapReq accesses(hits+misses) (Count)
testsys.cpu_cluster.cpus0.dcache.SwapReq.accesses::total        57910                       # number of SwapReq accesses(hits+misses) (Count)
testsys.cpu_cluster.cpus0.dcache.SwapReq.missRate::cpu_cluster.cpus0.data     0.084700                       # miss rate for SwapReq accesses (Ratio)
testsys.cpu_cluster.cpus0.dcache.SwapReq.missRate::total     0.084700                       # miss rate for SwapReq accesses (Ratio)
testsys.cpu_cluster.cpus0.dcache.SwapReq.avgMissLatency::cpu_cluster.cpus0.data  7481.600408                       # average SwapReq miss latency ((Tick/Count))
testsys.cpu_cluster.cpus0.dcache.SwapReq.avgMissLatency::total  7481.600408                       # average SwapReq miss latency ((Tick/Count))
testsys.cpu_cluster.cpus0.dcache.SwapReq.mshrHits::cpu_cluster.cpus0.data            5                       # number of SwapReq MSHR hits (Count)
testsys.cpu_cluster.cpus0.dcache.SwapReq.mshrHits::total            5                       # number of SwapReq MSHR hits (Count)
testsys.cpu_cluster.cpus0.dcache.SwapReq.mshrMisses::cpu_cluster.cpus0.data         4900                       # number of SwapReq MSHR misses (Count)
testsys.cpu_cluster.cpus0.dcache.SwapReq.mshrMisses::total         4900                       # number of SwapReq MSHR misses (Count)
testsys.cpu_cluster.cpus0.dcache.SwapReq.mshrMissLatency::cpu_cluster.cpus0.data     35362000                       # number of SwapReq MSHR miss ticks (Tick)
testsys.cpu_cluster.cpus0.dcache.SwapReq.mshrMissLatency::total     35362000                       # number of SwapReq MSHR miss ticks (Tick)
testsys.cpu_cluster.cpus0.dcache.SwapReq.mshrMissRate::cpu_cluster.cpus0.data     0.084614                       # mshr miss rate for SwapReq accesses (Ratio)
testsys.cpu_cluster.cpus0.dcache.SwapReq.mshrMissRate::total     0.084614                       # mshr miss rate for SwapReq accesses (Ratio)
testsys.cpu_cluster.cpus0.dcache.SwapReq.avgMshrMissLatency::cpu_cluster.cpus0.data  7216.734694                       # average SwapReq mshr miss latency ((Tick/Count))
testsys.cpu_cluster.cpus0.dcache.SwapReq.avgMshrMissLatency::total  7216.734694                       # average SwapReq mshr miss latency ((Tick/Count))
testsys.cpu_cluster.cpus0.dcache.WriteLineReq.hits::cpu_cluster.cpus0.data         3263                       # number of WriteLineReq hits (Count)
testsys.cpu_cluster.cpus0.dcache.WriteLineReq.hits::total         3263                       # number of WriteLineReq hits (Count)
testsys.cpu_cluster.cpus0.dcache.WriteLineReq.misses::cpu_cluster.cpus0.data       154812                       # number of WriteLineReq misses (Count)
testsys.cpu_cluster.cpus0.dcache.WriteLineReq.misses::total       154812                       # number of WriteLineReq misses (Count)
testsys.cpu_cluster.cpus0.dcache.WriteLineReq.missLatency::cpu_cluster.cpus0.data  11104726309                       # number of WriteLineReq miss ticks (Tick)
testsys.cpu_cluster.cpus0.dcache.WriteLineReq.missLatency::total  11104726309                       # number of WriteLineReq miss ticks (Tick)
testsys.cpu_cluster.cpus0.dcache.WriteLineReq.accesses::cpu_cluster.cpus0.data       158075                       # number of WriteLineReq accesses(hits+misses) (Count)
testsys.cpu_cluster.cpus0.dcache.WriteLineReq.accesses::total       158075                       # number of WriteLineReq accesses(hits+misses) (Count)
testsys.cpu_cluster.cpus0.dcache.WriteLineReq.missRate::cpu_cluster.cpus0.data     0.979358                       # miss rate for WriteLineReq accesses (Ratio)
testsys.cpu_cluster.cpus0.dcache.WriteLineReq.missRate::total     0.979358                       # miss rate for WriteLineReq accesses (Ratio)
testsys.cpu_cluster.cpus0.dcache.WriteLineReq.avgMissLatency::cpu_cluster.cpus0.data 71730.397573                       # average WriteLineReq miss latency ((Tick/Count))
testsys.cpu_cluster.cpus0.dcache.WriteLineReq.avgMissLatency::total 71730.397573                       # average WriteLineReq miss latency ((Tick/Count))
testsys.cpu_cluster.cpus0.dcache.WriteLineReq.mshrHits::cpu_cluster.cpus0.data          382                       # number of WriteLineReq MSHR hits (Count)
testsys.cpu_cluster.cpus0.dcache.WriteLineReq.mshrHits::total          382                       # number of WriteLineReq MSHR hits (Count)
[...]
testsys.pci_devices3.EtherDevice.postedTxOk            0                       # Number of TxOk interrupts posted to CPU (Count)
testsys.pci_devices3.EtherDevice.totalTxOk            0                       # Total number of TxOk written to ISR (Count)
testsys.pci_devices3.EtherDevice.coalescedTxOk          nan                       # Average number of TxOk's coalesced into each post ((Count/Count))
testsys.pci_devices3.EtherDevice.postedTxIdle            0                       # Number of TxIdle interrupts posted to CPU (Count)
testsys.pci_devices3.EtherDevice.totalTxIdle            0                       # Total number of TxIdle written to ISR (Count)
testsys.pci_devices3.EtherDevice.coalescedTxIdle          nan                       # Average number of TxIdle's coalesced into each post ((Count/Count))
testsys.pci_devices3.EtherDevice.postedTxDesc            0                       # Number of TxDesc interrupts posted to CPU (Count)
testsys.pci_devices3.EtherDevice.totalTxDesc            0                       # Total number of TxDesc written to ISR (Count)
testsys.pci_devices3.EtherDevice.coalescedTxDesc          nan                       # Average number of TxDesc's coalesced into each post ((Count/Count))
testsys.pci_devices3.EtherDevice.postedRxOrn            0                       # Number of RxOrn posted to CPU (Count)
testsys.pci_devices3.EtherDevice.totalRxOrn            0                       # Total number of RxOrn written to ISR (Count)
testsys.pci_devices3.EtherDevice.coalescedRxOrn          nan                       # Average number of RxOrn's coalesced into each post ((Count/Count))
testsys.pci_devices3.EtherDevice.coalescedTotal          nan                       # Average number of interrupts coalesced into each post ((Count/Count))
testsys.pci_devices3.EtherDevice.droppedPackets            0                       # Number of packets dropped (Count)
testsys.pci_devices3.power_state.pwrStateResidencyTicks::UNDEFINED 389452926250                       # Cumulative time (in ticks) in various power states (Tick)
testsys.pci_devices4.EtherDevice.postedInterrupts            0                       # Number of posts to CPU (Count)
testsys.pci_devices4.EtherDevice.descDmaReads            0                       # Number of descriptors the device read w/ DMA (Count)
testsys.pci_devices4.EtherDevice.descDmaWrites            0                       # Number of descriptors the device wrote w/ DMA (Count)
testsys.pci_devices4.EtherDevice.descDmaRdBytes            0                       # Number of descriptor bytes read w/ DMA (Count)
testsys.pci_devices4.EtherDevice.descDmaWrBytes            0                       # Number of descriptor bytes write w/ DMA (Count)
testsys.pci_devices4.EtherDevice.postedSwi            0                       # Number of software interrupts posted to CPU (Count)
testsys.pci_devices4.EtherDevice.totalSwi            0                       # Total number of Swi written to ISR (Count)
testsys.pci_devices4.EtherDevice.coalescedSwi          nan                       # Average number of Swi's coalesced into each post ((Count/Count))
testsys.pci_devices4.EtherDevice.postedRxIdle            0                       # Number of rxIdle interrupts posted to CPU (Count)
testsys.pci_devices4.EtherDevice.totalRxIdle            0                       # Total number of RxIdle written to ISR (Count)
testsys.pci_devices4.EtherDevice.coalescedRxIdle          nan                       # Average number of RxIdle's coalesced into each post ((Count/Count))
testsys.pci_devices4.EtherDevice.postedRxOk            0                       # Number of RxOk interrupts posted to CPU (Count)
testsys.pci_devices4.EtherDevice.totalRxOk            0                       # Total number of RxOk written to ISR (Count)
testsys.pci_devices4.EtherDevice.coalescedRxOk          nan                       # Average number of RxOk's coalesced into each post ((Count/Count))
testsys.pci_devices4.EtherDevice.postedRxDesc            0                       # Number of RxDesc interrupts posted to CPU (Count)
testsys.pci_devices4.EtherDevice.totalRxDesc            0                       # Total number of RxDesc written to ISR (Count)
testsys.pci_devices4.EtherDevice.coalescedRxDesc          nan                       # Average number of RxDesc's coalesced into each post ((Count/Count))
testsys.pci_devices4.EtherDevice.postedTxOk            0                       # Number of TxOk interrupts posted to CPU (Count)
testsys.pci_devices4.EtherDevice.totalTxOk            0                       # Total number of TxOk written to ISR (Count)
testsys.pci_devices4.EtherDevice.coalescedTxOk          nan                       # Average number of TxOk's coalesced into each post ((Count/Count))
testsys.pci_devices4.EtherDevice.postedTxIdle            0                       # Number of TxIdle interrupts posted to CPU (Count)
testsys.pci_devices4.EtherDevice.totalTxIdle            0                       # Total number of TxIdle written to ISR (Count)
testsys.pci_devices4.EtherDevice.coalescedTxIdle          nan                       # Average number of TxIdle's coalesced into each post ((Count/Count))
testsys.pci_devices4.EtherDevice.postedTxDesc            0                       # Number of TxDesc interrupts posted to CPU (Count)
testsys.pci_devices4.EtherDevice.totalTxDesc            0                       # Total number of TxDesc written to ISR (Count)
testsys.pci_devices4.EtherDevice.coalescedTxDesc          nan                       # Average number of TxDesc's coalesced into each post ((Count/Count))
testsys.pci_devices4.EtherDevice.postedRxOrn            0                       # Number of RxOrn posted to CPU (Count)
testsys.pci_devices4.EtherDevice.totalRxOrn            0                       # Total number of RxOrn written to ISR (Count)
testsys.pci_devices4.EtherDevice.coalescedRxOrn          nan                       # Average number of RxOrn's coalesced into each post ((Count/Count))
testsys.pci_devices4.EtherDevice.coalescedTotal          nan                       # Average number of interrupts coalesced into each post ((Count/Count))
testsys.pci_devices4.EtherDevice.droppedPackets            0                       # Number of packets dropped (Count)
testsys.pci_devices4.power_state.pwrStateResidencyTicks::UNDEFINED 389452926250                       # Cumulative time (in ticks) in various power states (Tick)
testsys.realview.bootmem.bytesRead::cpu_cluster.cpus0.inst          448                       # Number of bytes read from this memory (Byte)
testsys.realview.bootmem.bytesRead::cpu_cluster.cpus0.data           28                       # Number of bytes read from this memory (Byte)
testsys.realview.bootmem.bytesRead::cpu_cluster.cpus1.inst          512                       # Number of bytes read from this memory (Byte)
testsys.realview.bootmem.bytesRead::cpu_cluster.cpus1.data            8                       # Number of bytes read from this memory (Byte)
testsys.realview.bootmem.bytesRead::cpu_cluster.cpus2.inst          512                       # Number of bytes read from this memory (Byte)
testsys.realview.bootmem.bytesRead::cpu_cluster.cpus2.data            8                       # Number of bytes read from this memory (Byte)
testsys.realview.bootmem.bytesRead::cpu_cluster.cpus3.inst          512                       # Number of bytes read from this memory (Byte)
testsys.realview.bootmem.bytesRead::cpu_cluster.cpus3.data            8                       # Number of bytes read from this memory (Byte)
testsys.realview.bootmem.bytesRead::total         2036                       # Number of bytes read from this memory (Byte)
testsys.realview.bootmem.bytesInstRead::cpu_cluster.cpus0.inst          448                       # Number of instructions bytes read from this memory (Byte)
testsys.realview.bootmem.bytesInstRead::cpu_cluster.cpus1.inst          512                       # Number of instructions bytes read from this memory (Byte)
testsys.realview.bootmem.bytesInstRead::cpu_cluster.cpus2.inst          512                       # Number of instructions bytes read from this memory (Byte)
testsys.realview.bootmem.bytesInstRead::cpu_cluster.cpus3.inst          512                       # Number of instructions bytes read from this memory (Byte)
testsys.realview.bootmem.bytesInstRead::total         1984                       # Number of instructions bytes read from this memory (Byte)
testsys.realview.bootmem.numReads::cpu_cluster.cpus0.inst            7                       # Number of read requests responded to by this memory (Count)
testsys.realview.bootmem.numReads::cpu_cluster.cpus0.data            4                       # Number of read requests responded to by this memory (Count)
testsys.realview.bootmem.numReads::cpu_cluster.cpus1.inst            8                       # Number of read requests responded to by this memory (Count)
testsys.realview.bootmem.numReads::cpu_cluster.cpus1.data            1                       # Number of read requests responded to by this memory (Count)
testsys.realview.bootmem.numReads::cpu_cluster.cpus2.inst            8                       # Number of read requests responded to by this memory (Count)
testsys.realview.bootmem.numReads::cpu_cluster.cpus2.data            1                       # Number of read requests responded to by this memory (Count)
testsys.realview.bootmem.numReads::cpu_cluster.cpus3.inst            8                       # Number of read requests responded to by this memory (Count)
testsys.realview.bootmem.numReads::cpu_cluster.cpus3.data            1                       # Number of read requests responded to by this memory (Count)
testsys.realview.bootmem.numReads::total           38                       # Number of read requests responded to by this memory (Count)
testsys.realview.bootmem.bwRead::cpu_cluster.cpus0.inst         1150                       # Total read bandwidth from this memory ((Byte/Second))
testsys.realview.bootmem.bwRead::cpu_cluster.cpus0.data           72                       # Total read bandwidth from this memory ((Byte/Second))
testsys.realview.bootmem.bwRead::cpu_cluster.cpus1.inst         1315                       # Total read bandwidth from this memory ((Byte/Second))
testsys.realview.bootmem.bwRead::cpu_cluster.cpus1.data           21                       # Total read bandwidth from this memory ((Byte/Second))
testsys.realview.bootmem.bwRead::cpu_cluster.cpus2.inst         1315                       # Total read bandwidth from this memory ((Byte/Second))
testsys.realview.bootmem.bwRead::cpu_cluster.cpus2.data           21                       # Total read bandwidth from this memory ((Byte/Second))
testsys.realview.bootmem.bwRead::cpu_cluster.cpus3.inst         1315                       # Total read bandwidth from this memory ((Byte/Second))
testsys.realview.bootmem.bwRead::cpu_cluster.cpus3.data           21                       # Total read bandwidth from this memory ((Byte/Second))
testsys.realview.bootmem.bwRead::total           5228                       # Total read bandwidth from this memory ((Byte/Second))
testsys.realview.bootmem.bwInstRead::cpu_cluster.cpus0.inst         1150                       # Instruction read bandwidth from this memory ((Byte/Second))
testsys.realview.bootmem.bwInstRead::cpu_cluster.cpus1.inst         1315                       # Instruction read bandwidth from this memory ((Byte/Second))
testsys.realview.bootmem.bwInstRead::cpu_cluster.cpus2.inst         1315                       # Instruction read bandwidth from this memory ((Byte/Second))
testsys.realview.bootmem.bwInstRead::cpu_cluster.cpus3.inst         1315                       # Instruction read bandwidth from this memory ((Byte/Second))
testsys.realview.bootmem.bwInstRead::total         5094                       # Instruction read bandwidth from this memory ((Byte/Second))
testsys.realview.bootmem.bwTotal::cpu_cluster.cpus0.inst         1150                       # Total bandwidth to/from this memory ((Byte/Second))
testsys.realview.bootmem.bwTotal::cpu_cluster.cpus0.data           72                       # Total bandwidth to/from this memory ((Byte/Second))
testsys.realview.bootmem.bwTotal::cpu_cluster.cpus1.inst         1315                       # Total bandwidth to/from this memory ((Byte/Second))
testsys.realview.bootmem.bwTotal::cpu_cluster.cpus1.data           21                       # Total bandwidth to/from this memory ((Byte/Second))
testsys.realview.bootmem.bwTotal::cpu_cluster.cpus2.inst         1315                       # Total bandwidth to/from this memory ((Byte/Second))
testsys.realview.bootmem.bwTotal::cpu_cluster.cpus2.data           21                       # Total bandwidth to/from this memory ((Byte/Second))
testsys.realview.bootmem.bwTotal::cpu_cluster.cpus3.inst         1315                       # Total bandwidth to/from this memory ((Byte/Second))
testsys.realview.bootmem.bwTotal::cpu_cluster.cpus3.data           21                       # Total bandwidth to/from this memory ((Byte/Second))
testsys.realview.bootmem.bwTotal::total          5228                       # Total bandwidth to/from this memory ((Byte/Second))
testsys.realview.bootmem.power_state.pwrStateResidencyTicks::UNDEFINED 389452926250                       # Cumulative time (in ticks) in various power states (Tick)
testsys.realview.clock24MHz.clock               41667                       # Clock period in ticks (Tick)
testsys.realview.clock32KHz.clock            31250000                       # Clock period in ticks (Tick)
testsys.realview.dcc.osc_cpu.clock              16667                       # Clock period in ticks (Tick)
testsys.realview.dcc.osc_ddr.clock              25000                       # Clock period in ticks (Tick)
testsys.realview.dcc.osc_hsbm.clock             25000                       # Clock period in ticks (Tick)
testsys.realview.dcc.osc_pxl.clock              42105                       # Clock period in ticks (Tick)
testsys.realview.dcc.osc_smb.clock              20000                       # Clock period in ticks (Tick)
testsys.realview.dcc.osc_sys.clock              16667                       # Clock period in ticks (Tick)
testsys.realview.el2_watchdog.power_state.pwrStateResidencyTicks::UNDEFINED 389452926250                       # Cumulative time (in ticks) in various power states (Tick)
testsys.realview.energy_ctrl.power_state.pwrStateResidencyTicks::UNDEFINED 389452926250                       # Cumulative time (in ticks) in various power states (Tick)
testsys.realview.flash0.power_state.pwrStateResidencyTicks::UNDEFINED 389452926250                       # Cumulative time (in ticks) in various power states (Tick)
testsys.realview.flash1.power_state.pwrStateResidencyTicks::UNDEFINED 389452926250                       # Cumulative time (in ticks) in various power states (Tick)
testsys.realview.generic_timer_mem.frames0.power_state.pwrStateResidencyTicks::UNDEFINED 389452926250                       # Cumulative time (in ticks) in various power states (Tick)
testsys.realview.generic_timer_mem.frames1.power_state.pwrStateResidencyTicks::UNDEFINED 389452926250                       # Cumulative time (in ticks) in various power states (Tick)
testsys.realview.generic_timer_mem.power_state.pwrStateResidencyTicks::UNDEFINED 389452926250                       # Cumulative time (in ticks) in various power states (Tick)
testsys.realview.gic.power_state.pwrStateResidencyTicks::UNDEFINED 389452926250                       # Cumulative time (in ticks) in various power states (Tick)
testsys.realview.gicv2m.power_state.pwrStateResidencyTicks::UNDEFINED 389452926250                       # Cumulative time (in ticks) in various power states (Tick)
testsys.realview.io_voltage.voltage          3.300000                       # Voltage in Volts (Volt)
testsys.realview.kmi0.power_state.pwrStateResidencyTicks::UNDEFINED 389452926250                       # Cumulative time (in ticks) in various power states (Tick)
testsys.realview.kmi1.power_state.pwrStateResidencyTicks::UNDEFINED 389452926250                       # Cumulative time (in ticks) in various power states (Tick)
testsys.realview.mcc.osc_clcd.clock             42105                       # Clock period in ticks (Tick)
testsys.realview.mcc.osc_mcc.clock              20000                       # Clock period in ticks (Tick)
testsys.realview.mcc.osc_peripheral.clock        41667                       # Clock period in ticks (Tick)
testsys.realview.mcc.osc_system_bus.clock        41667                       # Clock period in ticks (Tick)
testsys.realview.non_trusted_sram.power_state.pwrStateResidencyTicks::UNDEFINED 389452926250                       # Cumulative time (in ticks) in various power states (Tick)
testsys.realview.pci_host.power_state.pwrStateResidencyTicks::UNDEFINED 389452926250                       # Cumulative time (in ticks) in various power states (Tick)
testsys.realview.pwr_ctrl.power_state.pwrStateResidencyTicks::UNDEFINED 389452926250                       # Cumulative time (in ticks) in various power states (Tick)
testsys.realview.realview_io.power_state.pwrStateResidencyTicks::UNDEFINED 389452926250                       # Cumulative time (in ticks) in various power states (Tick)
testsys.realview.rtc.power_state.pwrStateResidencyTicks::UNDEFINED 389452926250                       # Cumulative time (in ticks) in various power states (Tick)
testsys.realview.system_watchdog.power_state.pwrStateResidencyTicks::UNDEFINED 389452926250                       # Cumulative time (in ticks) in various power states (Tick)
testsys.realview.trusted_sram.power_state.pwrStateResidencyTicks::UNDEFINED 389452926250                       # Cumulative time (in ticks) in various power states (Tick)
testsys.realview.trusted_watchdog.power_state.pwrStateResidencyTicks::UNDEFINED 389452926250                       # Cumulative time (in ticks) in various power states (Tick)
testsys.realview.uart0.power_state.pwrStateResidencyTicks::UNDEFINED 389452926250                       # Cumulative time (in ticks) in various power states (Tick)
testsys.realview.uart1.power_state.pwrStateResidencyTicks::UNDEFINED 389452926250                       # Cumulative time (in ticks) in various power states (Tick)
testsys.realview.uart2.power_state.pwrStateResidencyTicks::UNDEFINED 389452926250                       # Cumulative time (in ticks) in various power states (Tick)
testsys.realview.uart3.power_state.pwrStateResidencyTicks::UNDEFINED 389452926250                       # Cumulative time (in ticks) in various power states (Tick)
testsys.realview.vgic.power_state.pwrStateResidencyTicks::UNDEFINED 389452926250                       # Cumulative time (in ticks) in various power states (Tick)
testsys.realview.vio0.power_state.pwrStateResidencyTicks::UNDEFINED 389452926250                       # Cumulative time (in ticks) in various power states (Tick)
testsys.realview.vio1.power_state.pwrStateResidencyTicks::UNDEFINED 389452926250                       # Cumulative time (in ticks) in various power states (Tick)
testsys.realview.vram.power_state.pwrStateResidencyTicks::UNDEFINED 389452926250                       # Cumulative time (in ticks) in various power states (Tick)
testsys.realview.watchdog.power_state.pwrStateResidencyTicks::UNDEFINED 389452926250                       # Cumulative time (in ticks) in various power states (Tick)
testsys.voltage_domain.voltage                      1                       # Voltage in Volts (Volt)
testsys.workload.inst.arm                           0                       # number of arm instructions executed (Count)
testsys.workload.inst.quiesce                    7425                       # number of quiesce instructions executed (Count)

---------- End Simulation Statistics   ----------
