
---------- Begin Simulation Statistics ----------
simSeconds                                   0.389648                       # Number of seconds simulated (Second)
simTicks                                 389647582500                       # Number of ticks simulated (Tick)
finalTick                                389647582500                       # Number of ticks from beginning of simulation (restored from checkpoints and never reset) (Tick)
simFreq                                  1000000000000                       # The number of ticks per simulated second ((Tick/Second))
hostSeconds                                    606.06                       # Real time elapsed on the host (Second)
hostTickRate                                642913959                       # The number of ticks simulated per host second (ticks/s) ((Tick/Second))
hostMemory                                  408010576                       # Number of bytes of host memory used (Byte)
simInsts                                    244856492                       # Number of instructions simulated (Count)
simOps                                      269429685                       # Number of ops (including micro ops) simulated (Count)
hostInstRate                                   404010                       # Simulator instruction rate (inst/s) ((Count/Second))
hostOpRate                                     444556                       # Simulator op (including micro ops) rate (op/s) ((Count/Second))
testsys.clk_domain.clock                         1000                       # Clock period in ticks (Tick)
testsys.cpu_cluster.clk_domain.clock              250                       # Clock period in ticks (Tick)
testsys.cpu_cluster.cpus0.numCycles         237747952                       # Number of cpu cycles simulated (Cycle)
testsys.cpu_cluster.cpus0.numWorkItemsStarted            0                       # Number of work items this cpu started (Count)
testsys.cpu_cluster.cpus0.numWorkItemsCompleted            0                       # Number of work items this cpu completed (Count)
testsys.cpu_cluster.cpus0.instsAdded        143507694                       # Number of instructions added to the IQ (excludes non-spec) (Count)
testsys.cpu_cluster.cpus0.nonSpecInstsAdded      1142261                       # Number of non-speculative instructions added to the IQ (Count)
testsys.cpu_cluster.cpus0.instsIssued       142226389                       # Number of instructions issued (Count)
testsys.cpu_cluster.cpus0.squashedInstsIssued       113762                       # Number of squashed instructions issued (Count)
testsys.cpu_cluster.cpus0.squashedInstsExamined     17366571                       # Number of squashed instructions iterated over during squash; mainly for profiling (Count)
testsys.cpu_cluster.cpus0.squashedOperandsExamined     12318999                       # Number of squashed operands that are examined and possibly removed from graph (Count)
testsys.cpu_cluster.cpus0.squashedNonSpecRemoved       128738                       # Number of squashed non-spec instructions that were removed (Count)
testsys.cpu_cluster.cpus0.numIssuedDist::samples    170962857                       # Number of insts issued each cycle (Count)
testsys.cpu_cluster.cpus0.numIssuedDist::mean     0.831914                       # Number of insts issued each cycle (Count)
testsys.cpu_cluster.cpus0.numIssuedDist::stdev     1.754833                       # Number of insts issued each cycle (Count)
testsys.cpu_cluster.cpus0.numIssuedDist::underflows            0      0.00%      0.00% # Number of insts issued each cycle (Count)
testsys.cpu_cluster.cpus0.numIssuedDist::0    127930706     74.83%     74.83% # Number of insts issued each cycle (Count)
testsys.cpu_cluster.cpus0.numIssuedDist::1      9704136      5.68%     80.51% # Number of insts issued each cycle (Count)
testsys.cpu_cluster.cpus0.numIssuedDist::2      8869352      5.19%     85.69% # Number of insts issued each cycle (Count)
testsys.cpu_cluster.cpus0.numIssuedDist::3      7389088      4.32%     90.02% # Number of insts issued each cycle (Count)
testsys.cpu_cluster.cpus0.numIssuedDist::4      5662674      3.31%     93.33% # Number of insts issued each cycle (Count)
testsys.cpu_cluster.cpus0.numIssuedDist::5      4083889      2.39%     95.72% # Number of insts issued each cycle (Count)
testsys.cpu_cluster.cpus0.numIssuedDist::6      3651436      2.14%     97.85% # Number of insts issued each cycle (Count)
testsys.cpu_cluster.cpus0.numIssuedDist::7      1735080      1.01%     98.87% # Number of insts issued each cycle (Count)
testsys.cpu_cluster.cpus0.numIssuedDist::8      1936496      1.13%    100.00% # Number of insts issued each cycle (Count)
testsys.cpu_cluster.cpus0.numIssuedDist::overflows            0      0.00%    100.00% # Number of insts issued each cycle (Count)
testsys.cpu_cluster.cpus0.numIssuedDist::min_value            0                       # Number of insts issued each cycle (Count)
testsys.cpu_cluster.cpus0.numIssuedDist::max_value            8                       # Number of insts issued each cycle (Count)
testsys.cpu_cluster.cpus0.numIssuedDist::total    170962857                       # Number of insts issued each cycle (Count)
testsys.cpu_cluster.cpus0.statFuBusy::No_OpClass            0      0.00%      0.00% # attempts to use FU when none available (Count)
testsys.cpu_cluster.cpus0.statFuBusy::IntAlu      1037428     52.09%     52.09% # attempts to use FU when none available (Count)
testsys.cpu_cluster.cpus0.statFuBusy::IntMult         3580      0.18%     52.27% # attempts to use FU when none available (Count)
testsys.cpu_cluster.cpus0.statFuBusy::IntDiv        11422      0.57%     52.85% # attempts to use FU when none available (Count)
testsys.cpu_cluster.cpus0.statFuBusy::FloatAdd            0      0.00%     52.85% # attempts to use FU when none available (Count)
testsys.cpu_cluster.cpus0.statFuBusy::FloatCmp            0      0.00%     52.85% # attempts to use FU when none available (Count)
testsys.cpu_cluster.cpus0.statFuBusy::FloatCvt            0      0.00%     52.85% # attempts to use FU when none available (Count)
testsys.cpu_cluster.cpus0.statFuBusy::FloatMult            0      0.00%     52.85% # attempts to use FU when none available (Count)
testsys.cpu_cluster.cpus0.statFuBusy::FloatMultAcc            0      0.00%     52.85% # attempts to use FU when none available (Count)
testsys.cpu_cluster.cpus0.statFuBusy::FloatDiv            0      0.00%     52.85% # attempts to use FU when none available (Count)
testsys.cpu_cluster.cpus0.statFuBusy::FloatMisc           79      0.00%     52.85% # attempts to use FU when none available (Count)
testsys.cpu_cluster.cpus0.statFuBusy::FloatSqrt            0      0.00%     52.85% # attempts to use FU when none available (Count)
testsys.cpu_cluster.cpus0.statFuBusy::SimdAdd            0      0.00%     52.85% # attempts to use FU when none available (Count)
testsys.cpu_cluster.cpus0.statFuBusy::SimdAddAcc            0      0.00%     52.85% # attempts to use FU when none available (Count)
testsys.cpu_cluster.cpus0.statFuBusy::SimdAlu            0      0.00%     52.85% # attempts to use FU when none available (Count)
testsys.cpu_cluster.cpus0.statFuBusy::SimdCmp            0      0.00%     52.85% # attempts to use FU when none available (Count)
testsys.cpu_cluster.cpus0.statFuBusy::SimdCvt            0      0.00%     52.85% # attempts to use FU when none available (Count)
testsys.cpu_cluster.cpus0.statFuBusy::SimdMisc            0      0.00%     52.85% # attempts to use FU when none available (Count)
testsys.cpu_cluster.cpus0.statFuBusy::SimdMult            0      0.00%     52.85% # attempts to use FU when none available (Count)
testsys.cpu_cluster.cpus0.statFuBusy::SimdMultAcc            0      0.00%     52.85% # attempts to use FU when none available (Count)
testsys.cpu_cluster.cpus0.statFuBusy::SimdShift            0      0.00%     52.85% # attempts to use FU when none available (Count)
testsys.cpu_cluster.cpus0.statFuBusy::SimdShiftAcc            0      0.00%     52.85% # attempts to use FU when none available (Count)
testsys.cpu_cluster.cpus0.statFuBusy::SimdDiv            0      0.00%     52.85% # attempts to use FU when none available (Count)
testsys.cpu_cluster.cpus0.statFuBusy::SimdSqrt            0      0.00%     52.85% # attempts to use FU when none available (Count)
testsys.cpu_cluster.cpus0.statFuBusy::SimdFloatAdd            0      0.00%     52.85% # attempts to use FU when none available (Count)
testsys.cpu_cluster.cpus0.statFuBusy::SimdFloatAlu            0      0.00%     52.85% # attempts to use FU when none available (Count)
testsys.cpu_cluster.cpus0.statFuBusy::SimdFloatCmp            0      0.00%     52.85% # attempts to use FU when none available (Count)
testsys.cpu_cluster.cpus0.statFuBusy::SimdFloatCvt            0      0.00%     52.85% # attempts to use FU when none available (Count)
testsys.cpu_cluster.cpus0.statFuBusy::SimdFloatDiv            0      0.00%     52.85% # attempts to use FU when none available (Count)
testsys.cpu_cluster.cpus0.statFuBusy::SimdFloatMisc            0      0.00%     52.85% # attempts to use FU when none available (Count)
testsys.cpu_cluster.cpus0.statFuBusy::SimdFloatMult            0      0.00%     52.85% # attempts to use FU when none available (Count)
testsys.cpu_cluster.cpus0.statFuBusy::SimdFloatMultAcc            0      0.00%     52.85% # attempts to use FU when none available (Count)
testsys.cpu_cluster.cpus0.statFuBusy::SimdFloatSqrt            0      0.00%     52.85% # attempts to use FU when none available (Count)
testsys.cpu_cluster.cpus0.statFuBusy::SimdReduceAdd            0      0.00%     52.85% # attempts to use FU when none available (Count)
testsys.cpu_cluster.cpus0.statFuBusy::SimdReduceAlu            0      0.00%     52.85% # attempts to use FU when none available (Count)
testsys.cpu_cluster.cpus0.statFuBusy::SimdReduceCmp            0      0.00%     52.85% # attempts to use FU when none available (Count)
testsys.cpu_cluster.cpus0.statFuBusy::SimdFloatReduceAdd            0      0.00%     52.85% # attempts to use FU when none available (Count)
testsys.cpu_cluster.cpus0.statFuBusy::SimdFloatReduceCmp            0      0.00%     52.85% # attempts to use FU when none available (Count)
testsys.cpu_cluster.cpus0.statFuBusy::SimdAes            0      0.00%     52.85% # attempts to use FU when none available (Count)
testsys.cpu_cluster.cpus0.statFuBusy::SimdAesMix            0      0.00%     52.85% # attempts to use FU when none available (Count)
testsys.cpu_cluster.cpus0.statFuBusy::SimdSha1Hash            0      0.00%     52.85% # attempts to use FU when none available (Count)
testsys.cpu_cluster.cpus0.statFuBusy::SimdSha1Hash2            0      0.00%     52.85% # attempts to use FU when none available (Count)
testsys.cpu_cluster.cpus0.statFuBusy::SimdSha256Hash            0      0.00%     52.85% # attempts to use FU when none available (Count)
testsys.cpu_cluster.cpus0.statFuBusy::SimdSha256Hash2            0      0.00%     52.85% # attempts to use FU when none available (Count)
testsys.cpu_cluster.cpus0.statFuBusy::SimdShaSigma2            0      0.00%     52.85% # attempts to use FU when none available (Count)
testsys.cpu_cluster.cpus0.statFuBusy::SimdShaSigma3            0      0.00%     52.85% # attempts to use FU when none available (Count)
testsys.cpu_cluster.cpus0.statFuBusy::SimdPredAlu            0      0.00%     52.85% # attempts to use FU when none available (Count)
testsys.cpu_cluster.cpus0.statFuBusy::MemRead       554541     27.85%     80.70% # attempts to use FU when none available (Count)
testsys.cpu_cluster.cpus0.statFuBusy::MemWrite       384388     19.30%    100.00% # attempts to use FU when none available (Count)
testsys.cpu_cluster.cpus0.statFuBusy::FloatMemRead            0      0.00%    100.00% # attempts to use FU when none available (Count)
testsys.cpu_cluster.cpus0.statFuBusy::FloatMemWrite            0      0.00%    100.00% # attempts to use FU when none available (Count)
testsys.cpu_cluster.cpus0.statFuBusy::IprAccess            0      0.00%    100.00% # attempts to use FU when none available (Count)
testsys.cpu_cluster.cpus0.statFuBusy::InstPrefetch            0      0.00%    100.00% # attempts to use FU when none available (Count)
testsys.cpu_cluster.cpus0.statIssuedInstType_0::No_OpClass        17038      0.01%      0.01% # Number of instructions issued per FU type, per thread (Count)
testsys.cpu_cluster.cpus0.statIssuedInstType_0::IntAlu    104916101     73.77%     73.78% # Number of instructions issued per FU type, per thread (Count)
testsys.cpu_cluster.cpus0.statIssuedInstType_0::IntMult       671209      0.47%     74.25% # Number of instructions issued per FU type, per thread (Count)
testsys.cpu_cluster.cpus0.statIssuedInstType_0::IntDiv         8720      0.01%     74.26% # Number of instructions issued per FU type, per thread (Count)
testsys.cpu_cluster.cpus0.statIssuedInstType_0::FloatAdd            0      0.00%     74.26% # Number of instructions issued per FU type, per thread (Count)
testsys.cpu_cluster.cpus0.statIssuedInstType_0::FloatCmp            0      0.00%     74.26% # Number of instructions issued per FU type, per thread (Count)
testsys.cpu_cluster.cpus0.statIssuedInstType_0::FloatCvt            0      0.00%     74.26% # Number of instructions issued per FU type, per thread (Count)
testsys.cpu_cluster.cpus0.statIssuedInstType_0::FloatMult            0      0.00%     74.26% # Number of instructions issued per FU type, per thread (Count)
testsys.cpu_cluster.cpus0.statIssuedInstType_0::FloatMultAcc            0      0.00%     74.26% # Number of instructions issued per FU type, per thread (Count)
testsys.cpu_cluster.cpus0.statIssuedInstType_0::FloatDiv            0      0.00%     74.26% # Number of instructions issued per FU type, per thread (Count)
testsys.cpu_cluster.cpus0.statIssuedInstType_0::FloatMisc        28444      0.02%     74.28% # Number of instructions issued per FU type, per thread (Count)
testsys.cpu_cluster.cpus0.statIssuedInstType_0::FloatSqrt            0      0.00%     74.28% # Number of instructions issued per FU type, per thread (Count)
testsys.cpu_cluster.cpus0.statIssuedInstType_0::SimdAdd            0      0.00%     74.28% # Number of instructions issued per FU type, per thread (Count)
testsys.cpu_cluster.cpus0.statIssuedInstType_0::SimdAddAcc            0      0.00%     74.28% # Number of instructions issued per FU type, per thread (Count)
testsys.cpu_cluster.cpus0.statIssuedInstType_0::SimdAlu            3      0.00%     74.28% # Number of instructions issued per FU type, per thread (Count)
testsys.cpu_cluster.cpus0.statIssuedInstType_0::SimdCmp            0      0.00%     74.28% # Number of instructions issued per FU type, per thread (Count)
testsys.cpu_cluster.cpus0.statIssuedInstType_0::SimdCvt            0      0.00%     74.28% # Number of instructions issued per FU type, per thread (Count)
testsys.cpu_cluster.cpus0.statIssuedInstType_0::SimdMisc          100      0.00%     74.28% # Number of instructions issued per FU type, per thread (Count)
testsys.cpu_cluster.cpus0.statIssuedInstType_0::SimdMult            0      0.00%     74.28% # Number of instructions issued per FU type, per thread (Count)
testsys.cpu_cluster.cpus0.statIssuedInstType_0::SimdMultAcc            0      0.00%     74.28% # Number of instructions issued per FU type, per thread (Count)
testsys.cpu_cluster.cpus0.statIssuedInstType_0::SimdShift            0      0.00%     74.28% # Number of instructions issued per FU type, per thread (Count)
testsys.cpu_cluster.cpus0.statIssuedInstType_0::SimdShiftAcc            0      0.00%     74.28% # Number of instructions issued per FU type, per thread (Count)
testsys.cpu_cluster.cpus0.statIssuedInstType_0::SimdDiv            0      0.00%     74.28% # Number of instructions issued per FU type, per thread (Count)
testsys.cpu_cluster.cpus0.statIssuedInstType_0::SimdSqrt            0      0.00%     74.28% # Number of instructions issued per FU type, per thread (Count)
testsys.cpu_cluster.cpus0.statIssuedInstType_0::SimdFloatAdd            0      0.00%     74.28% # Number of instructions issued per FU type, per thread (Count)
testsys.cpu_cluster.cpus0.statIssuedInstType_0::SimdFloatAlu            0      0.00%     74.28% # Number of instructions issued per FU type, per thread (Count)
testsys.cpu_cluster.cpus0.statIssuedInstType_0::SimdFloatCmp            0      0.00%     74.28% # Number of instructions issued per FU type, per thread (Count)
testsys.cpu_cluster.cpus0.statIssuedInstType_0::SimdFloatCvt            0      0.00%     74.28% # Number of instructions issued per FU type, per thread (Count)
testsys.cpu_cluster.cpus0.statIssuedInstType_0::SimdFloatDiv            0      0.00%     74.28% # Number of instructions issued per FU type, per thread (Count)
testsys.cpu_cluster.cpus0.statIssuedInstType_0::SimdFloatMisc            0      0.00%     74.28% # Number of instructions issued per FU type, per thread (Count)
testsys.cpu_cluster.cpus0.statIssuedInstType_0::SimdFloatMult            0      0.00%     74.28% # Number of instructions issued per FU type, per thread (Count)
testsys.cpu_cluster.cpus0.statIssuedInstType_0::SimdFloatMultAcc            0      0.00%     74.28% # Number of instructions issued per FU type, per thread (Count)
testsys.cpu_cluster.cpus0.statIssuedInstType_0::SimdFloatSqrt            0      0.00%     74.28% # Number of instructions issued per FU type, per thread (Count)
testsys.cpu_cluster.cpus0.statIssuedInstType_0::SimdReduceAdd            0      0.00%     74.28% # Number of instructions issued per FU type, per thread (Count)
testsys.cpu_cluster.cpus0.statIssuedInstType_0::SimdReduceAlu            0      0.00%     74.28% # Number of instructions issued per FU type, per thread (Count)
testsys.cpu_cluster.cpus0.statIssuedInstType_0::SimdReduceCmp            0      0.00%     74.28% # Number of instructions issued per FU type, per thread (Count)
testsys.cpu_cluster.cpus0.statIssuedInstType_0::SimdFloatReduceAdd            0      0.00%     74.28% # Number of instructions issued per FU type, per thread (Count)
testsys.cpu_cluster.cpus0.statIssuedInstType_0::SimdFloatReduceCmp            0      0.00%     74.28% # Number of instructions issued per FU type, per thread (Count)
testsys.cpu_cluster.cpus0.statIssuedInstType_0::SimdAes            0      0.00%     74.28% # Number of instructions issued per FU type, per thread (Count)
testsys.cpu_cluster.cpus0.statIssuedInstType_0::SimdAesMix            0      0.00%     74.28% # Number of instructions issued per FU type, per thread (Count)
testsys.cpu_cluster.cpus0.statIssuedInstType_0::SimdSha1Hash            0      0.00%     74.28% # Number of instructions issued per FU type, per thread (Count)
testsys.cpu_cluster.cpus0.statIssuedInstType_0::SimdSha1Hash2            0      0.00%     74.28% # Number of instructions issued per FU type, per thread (Count)
testsys.cpu_cluster.cpus0.statIssuedInstType_0::SimdSha256Hash            0      0.00%     74.28% # Number of instructions issued per FU type, per thread (Count)
testsys.cpu_cluster.cpus0.statIssuedInstType_0::SimdSha256Hash2            0      0.00%     74.28% # Number of instructions issued per FU type, per thread (Count)
testsys.cpu_cluster.cpus0.statIssuedInstType_0::SimdShaSigma2            0      0.00%     74.28% # Number of instructions issued per FU type, per thread (Count)
testsys.cpu_cluster.cpus0.statIssuedInstType_0::SimdShaSigma3            0      0.00%     74.28% # Number of instructions issued per FU type, per thread (Count)
testsys.cpu_cluster.cpus0.statIssuedInstType_0::SimdPredAlu            0      0.00%     74.28% # Number of instructions issued per FU type, per thread (Count)
testsys.cpu_cluster.cpus0.statIssuedInstType_0::MemRead     23095078     16.24%     90.52% # Number of instructions issued per FU type, per thread (Count)
testsys.cpu_cluster.cpus0.statIssuedInstType_0::MemWrite     13489696      9.48%    100.00% # Number of instructions issued per FU type, per thread (Count)
testsys.cpu_cluster.cpus0.statIssuedInstType_0::FloatMemRead            0      0.00%    100.00% # Number of instructions issued per FU type, per thread (Count)
testsys.cpu_cluster.cpus0.statIssuedInstType_0::FloatMemWrite            0      0.00%    100.00% # Number of instructions issued per FU type, per thread (Count)
testsys.cpu_cluster.cpus0.statIssuedInstType_0::IprAccess            0      0.00%    100.00% # Number of instructions issued per FU type, per thread (Count)
testsys.cpu_cluster.cpus0.statIssuedInstType_0::InstPrefetch            0      0.00%    100.00% # Number of instructions issued per FU type, per thread (Count)
testsys.cpu_cluster.cpus0.statIssuedInstType_0::total    142226389                       # Number of instructions issued per FU type, per thread (Count)
testsys.cpu_cluster.cpus0.issueRate          0.598223                       # Inst issue rate ((Count/Cycle))
testsys.cpu_cluster.cpus0.fuBusy              1991438                       # FU busy when requested (Count)
testsys.cpu_cluster.cpus0.fuBusyRate         0.014002                       # FU busy rate (busy events/executed inst) ((Count/Count))
testsys.cpu_cluster.cpus0.intInstQueueReads    457436846                       # Number of integer instruction queue reads (Count)
testsys.cpu_cluster.cpus0.intInstQueueWrites    161965888                       # Number of integer instruction queue writes (Count)
testsys.cpu_cluster.cpus0.intInstQueueWakeupAccesses    135837902                       # Number of integer instruction queue wakeup accesses (Count)
testsys.cpu_cluster.cpus0.fpInstQueueReads            0                       # Number of floating instruction queue reads (Count)
testsys.cpu_cluster.cpus0.fpInstQueueWrites            0                       # Number of floating instruction queue writes (Count)
testsys.cpu_cluster.cpus0.fpInstQueueWakeupAccesses            0                       # Number of floating instruction queue wakeup accesses (Count)
testsys.cpu_cluster.cpus0.vecInstQueueReads        83989                       # Number of vector instruction queue reads (Count)
testsys.cpu_cluster.cpus0.vecInstQueueWrites        62507                       # Number of vector instruction queue writes (Count)
testsys.cpu_cluster.cpus0.vecInstQueueWakeupAccesses        39313                       # Number of vector instruction queue wakeup accesses (Count)
testsys.cpu_cluster.cpus0.intAluAccesses    144158274                       # Number of integer alu accesses (Count)
testsys.cpu_cluster.cpus0.fpAluAccesses             0                       # Number of floating point alu accesses (Count)
testsys.cpu_cluster.cpus0.vecAluAccesses        42515                       # Number of vector alu accesses (Count)
testsys.cpu_cluster.cpus0.idleCycles                0                       # Number of cycles IEW is idle (Cycle)
testsys.cpu_cluster.cpus0.squashCycles         921982                       # Number of cycles IEW is squashing (Cycle)
testsys.cpu_cluster.cpus0.blockCycles        12713910                       # Number of cycles IEW is blocking (Cycle)
testsys.cpu_cluster.cpus0.unblockCycles       3536266                       # Number of cycles IEW is unblocking (Cycle)
testsys.cpu_cluster.cpus0.dispatchedInsts    145340059                       # Number of instructions dispatched to IQ (Count)
testsys.cpu_cluster.cpus0.dispSquashedInsts        59543                       # Number of squashed instructions skipped by dispatch (Count)
testsys.cpu_cluster.cpus0.dispLoadInsts      20106359                       # Number of dispatched load instructions (Count)
testsys.cpu_cluster.cpus0.dispStoreInsts     13646083                       # Number of dispatched store instructions (Count)
testsys.cpu_cluster.cpus0.dispNonSpecInsts       309348                       # Number of dispatched non-speculative instructions (Count)
testsys.cpu_cluster.cpus0.iqFullEvents         112741                       # Number of times the IQ has become full, causing a stall (Count)
testsys.cpu_cluster.cpus0.lsqFullEvents       3316492                       # Number of times the LSQ has become full, causing a stall (Count)
testsys.cpu_cluster.cpus0.memOrderViolationEvents        12618                       # Number of memory order violations (Count)
testsys.cpu_cluster.cpus0.predictedTakenIncorrect        83443                       # Number of branches that were predicted taken incorrectly (Count)
testsys.cpu_cluster.cpus0.predictedNotTakenIncorrect       185921                       # Number of branches that were predicted not taken incorrectly (Count)
testsys.cpu_cluster.cpus0.branchMispredicts       269364                       # Number of branch mispredicts detected at execute (Count)
testsys.cpu_cluster.cpus0.numInsts          139973246                       # Number of executed instructions (Count)
testsys.cpu_cluster.cpus0.numLoadInsts       22888247                       # Number of load instructions executed (Count)
testsys.cpu_cluster.cpus0.numSquashedInsts      2033708                       # Number of squashed instructions skipped in execute (Count)
testsys.cpu_cluster.cpus0.numSwp                    0                       # Number of swp insts executed (Count)
testsys.cpu_cluster.cpus0.numNop               690104                       # Number of nop insts executed (Count)
testsys.cpu_cluster.cpus0.numRefs            36192599                       # Number of memory reference insts executed (Count)
testsys.cpu_cluster.cpus0.numBranches        27848692                       # Number of branches executed (Count)
testsys.cpu_cluster.cpus0.numStoreInsts      13304352                       # Number of stores executed (Count)
testsys.cpu_cluster.cpus0.numRate            0.588746                       # Inst execution rate ((Count/Cycle))
testsys.cpu_cluster.cpus0.instsToCommit     135966687                       # Cumulative count of insts sent to commit (Count)
testsys.cpu_cluster.cpus0.writebackCount    135877215                       # Cumulative count of insts written-back (Count)
testsys.cpu_cluster.cpus0.producerInst       76995068                       # Number of instructions producing a value (Count)
testsys.cpu_cluster.cpus0.consumerInst      134948454                       # Number of instructions consuming a value (Count)
testsys.cpu_cluster.cpus0.wbRate             0.571518                       # Insts written-back per cycle ((Count/Cycle))
testsys.cpu_cluster.cpus0.wbFanout           0.570552                       # Average fanout of values written-back ((Count/Count))
testsys.cpu_cluster.cpus0.timesIdled           440358                       # Number of times that the entire CPU went into an idle state and unscheduled itself (Count)
testsys.cpu_cluster.cpus0.idleCycles         66785095                       # Total number of cycles that the CPU has spent unscheduled due to idling (Cycle)
testsys.cpu_cluster.cpus0.quiesceCycles    1320824217                       # Total number of cycles that CPU has spent quiesced or waiting for an interrupt (Cycle)
testsys.cpu_cluster.cpus0.committedInsts    117270505                       # Number of Instructions Simulated (Count)
testsys.cpu_cluster.cpus0.committedOps      127283384                       # Number of Ops (including micro ops) Simulated (Count)
testsys.cpu_cluster.cpus0.cpi                2.027347                       # CPI: Cycles Per Instruction ((Cycle/Count))
testsys.cpu_cluster.cpus0.totalCpi           2.027347                       # CPI: Total CPI of All Threads ((Cycle/Count))
testsys.cpu_cluster.cpus0.ipc                0.493256                       # IPC: Instructions Per Cycle ((Count/Cycle))
testsys.cpu_cluster.cpus0.totalIpc           0.493256                       # IPC: Total IPC of All Threads ((Count/Cycle))
testsys.cpu_cluster.cpus0.intRegfileReads    164992405                       # Number of integer regfile reads (Count)
testsys.cpu_cluster.cpus0.intRegfileWrites     98742074                       # Number of integer regfile writes (Count)
testsys.cpu_cluster.cpus0.vecRegfileReads        31381                       # number of vector regfile reads (Count)
testsys.cpu_cluster.cpus0.vecRegfileWrites         8157                       # number of vector regfile writes (Count)
testsys.cpu_cluster.cpus0.vecPredRegfileReads           18                       # number of predicate regfile reads (Count)
testsys.cpu_cluster.cpus0.ccRegfileReads     45456523                       # number of cc regfile reads (Count)
testsys.cpu_cluster.cpus0.ccRegfileWrites     44264490                       # number of cc regfile writes (Count)
testsys.cpu_cluster.cpus0.miscRegfileReads    759235548                       # number of misc regfile reads (Count)
testsys.cpu_cluster.cpus0.miscRegfileWrites       439572                       # number of misc regfile writes (Count)
testsys.cpu_cluster.cpus0.MemDepUnit__0.insertedLoads     20106359                       # Number of loads inserted to the mem dependence unit. (Count)
testsys.cpu_cluster.cpus0.MemDepUnit__0.insertedStores     13646083                       # Number of stores inserted to the mem dependence unit. (Count)
testsys.cpu_cluster.cpus0.MemDepUnit__0.conflictingLoads      1027803                       # Number of conflicting loads. (Count)
testsys.cpu_cluster.cpus0.MemDepUnit__0.conflictingStores      1070959                       # Number of conflicting stores. (Count)
testsys.cpu_cluster.cpus0.MemDepUnit__1.insertedLoads            0                       # Number of loads inserted to the mem dependence unit. (Count)
testsys.cpu_cluster.cpus0.MemDepUnit__1.insertedStores            0                       # Number of stores inserted to the mem dependence unit. (Count)
testsys.cpu_cluster.cpus0.MemDepUnit__1.conflictingLoads            0                       # Number of conflicting loads. (Count)
testsys.cpu_cluster.cpus0.MemDepUnit__1.conflictingStores            0                       # Number of conflicting stores. (Count)
testsys.cpu_cluster.cpus0.MemDepUnit__2.insertedLoads            0                       # Number of loads inserted to the mem dependence unit. (Count)
testsys.cpu_cluster.cpus0.MemDepUnit__2.insertedStores            0                       # Number of stores inserted to the mem dependence unit. (Count)
testsys.cpu_cluster.cpus0.MemDepUnit__2.conflictingLoads            0                       # Number of conflicting loads. (Count)
testsys.cpu_cluster.cpus0.MemDepUnit__2.conflictingStores            0                       # Number of conflicting stores. (Count)
testsys.cpu_cluster.cpus0.MemDepUnit__3.insertedLoads            0                       # Number of loads inserted to the mem dependence unit. (Count)
testsys.cpu_cluster.cpus0.MemDepUnit__3.insertedStores            0                       # Number of stores inserted to the mem dependence unit. (Count)
testsys.cpu_cluster.cpus0.MemDepUnit__3.conflictingLoads            0                       # Number of conflicting loads. (Count)
testsys.cpu_cluster.cpus0.MemDepUnit__3.conflictingStores            0                       # Number of conflicting stores. (Count)
testsys.cpu_cluster.cpus0.branchPred.lookups     37784171                       # Number of BP lookups (Count)
testsys.cpu_cluster.cpus0.branchPred.condPredicted     25081047                       # Number of conditional branches predicted (Count)
testsys.cpu_cluster.cpus0.branchPred.condIncorrect       314767                       # Number of conditional branches incorrect (Count)
testsys.cpu_cluster.cpus0.branchPred.BTBLookups     17071734                       # Number of BTB lookups (Count)
testsys.cpu_cluster.cpus0.branchPred.BTBHits     16746857                       # Number of BTB hits (Count)
testsys.cpu_cluster.cpus0.branchPred.BTBHitRatio     0.980970                       # BTB Hit Ratio (Ratio)
testsys.cpu_cluster.cpus0.branchPred.RASUsed      4954322                       # Number of times the RAS was used to get a target. (Count)
testsys.cpu_cluster.cpus0.branchPred.RASIncorrect         5075                       # Number of incorrect RAS predictions. (Count)
testsys.cpu_cluster.cpus0.branchPred.indirectLookups       635481                       # Number of indirect predictor lookups. (Count)
testsys.cpu_cluster.cpus0.branchPred.indirectHits       594926                       # Number of indirect target hits. (Count)
testsys.cpu_cluster.cpus0.branchPred.indirectMisses        40555                       # Number of indirect misses. (Count)
testsys.cpu_cluster.cpus0.branchPred.indirectMispredicted         7375                       # Number of mispredicted indirect branches. (Count)
testsys.cpu_cluster.cpus0.commit.commitSquashedInsts     17442775                       # The number of squashed insts skipped by commit (Count)
testsys.cpu_cluster.cpus0.commit.commitNonSpecStalls      1013523                       # The number of times commit has been forced to stall to communicate backwards (Count)
testsys.cpu_cluster.cpus0.commit.branchMispredicts       241187                       # The number of times a branch was mispredicted (Count)
testsys.cpu_cluster.cpus0.commit.numCommittedDist::samples    168538458                       # Number of insts commited each cycle (Count)
testsys.cpu_cluster.cpus0.commit.numCommittedDist::mean     0.758823                       # Number of insts commited each cycle (Count)
testsys.cpu_cluster.cpus0.commit.numCommittedDist::stdev     1.940742                       # Number of insts commited each cycle (Count)
testsys.cpu_cluster.cpus0.commit.numCommittedDist::underflows            0      0.00%      0.00% # Number of insts commited each cycle (Count)
testsys.cpu_cluster.cpus0.commit.numCommittedDist::0    133020623     78.93%     78.93% # Number of insts commited each cycle (Count)
testsys.cpu_cluster.cpus0.commit.numCommittedDist::1     13599456      8.07%     87.00% # Number of insts commited each cycle (Count)
testsys.cpu_cluster.cpus0.commit.numCommittedDist::2      4434693      2.63%     89.63% # Number of insts commited each cycle (Count)
testsys.cpu_cluster.cpus0.commit.numCommittedDist::3      2439446      1.45%     91.07% # Number of insts commited each cycle (Count)
testsys.cpu_cluster.cpus0.commit.numCommittedDist::4      2342589      1.39%     92.46% # Number of insts commited each cycle (Count)
testsys.cpu_cluster.cpus0.commit.numCommittedDist::5      3030528      1.80%     94.26% # Number of insts commited each cycle (Count)
testsys.cpu_cluster.cpus0.commit.numCommittedDist::6      1588848      0.94%     95.20% # Number of insts commited each cycle (Count)
testsys.cpu_cluster.cpus0.commit.numCommittedDist::7       610582      0.36%     95.57% # Number of insts commited each cycle (Count)
testsys.cpu_cluster.cpus0.commit.numCommittedDist::8      7471693      4.43%    100.00% # Number of insts commited each cycle (Count)
testsys.cpu_cluster.cpus0.commit.numCommittedDist::overflows            0      0.00%    100.00% # Number of insts commited each cycle (Count)
testsys.cpu_cluster.cpus0.commit.numCommittedDist::min_value            0                       # Number of insts commited each cycle (Count)
testsys.cpu_cluster.cpus0.commit.numCommittedDist::max_value            8                       # Number of insts commited each cycle (Count)
testsys.cpu_cluster.cpus0.commit.numCommittedDist::total    168538458                       # Number of insts commited each cycle (Count)
testsys.cpu_cluster.cpus0.commit.instsCommitted    117878003                       # Number of instructions committed (Count)
testsys.cpu_cluster.cpus0.commit.opsCommitted    127890882                       # Number of ops (including micro ops) committed (Count)
testsys.cpu_cluster.cpus0.commit.memRefs     30748730                       # Number of memory references committed (Count)
testsys.cpu_cluster.cpus0.commit.loads       17715175                       # Number of loads committed (Count)
testsys.cpu_cluster.cpus0.commit.amos           60143                       # Number of atomic instructions committed (Count)
testsys.cpu_cluster.cpus0.commit.membars       847691                       # Number of memory barriers committed (Count)
testsys.cpu_cluster.cpus0.commit.branches     26236293                       # Number of branches committed (Count)
testsys.cpu_cluster.cpus0.commit.vectorInstructions        23865                       # Number of committed Vector instructions. (Count)
testsys.cpu_cluster.cpus0.commit.floating            0                       # Number of committed floating point instructions. (Count)
testsys.cpu_cluster.cpus0.commit.integer    113056004                       # Number of committed integer instructions. (Count)
testsys.cpu_cluster.cpus0.commit.functionCalls      3168085                       # Number of function calls committed. (Count)
testsys.cpu_cluster.cpus0.commit.committedInstType_0::No_OpClass        15230      0.01%      0.01% # Class of committed instruction (Count)
testsys.cpu_cluster.cpus0.commit.committedInstType_0::IntAlu     96441156     75.41%     75.42% # Class of committed instruction (Count)
testsys.cpu_cluster.cpus0.commit.committedInstType_0::IntMult       664361      0.52%     75.94% # Class of committed instruction (Count)
testsys.cpu_cluster.cpus0.commit.committedInstType_0::IntDiv         6599      0.01%     75.95% # Class of committed instruction (Count)
testsys.cpu_cluster.cpus0.commit.committedInstType_0::FloatAdd            0      0.00%     75.95% # Class of committed instruction (Count)
testsys.cpu_cluster.cpus0.commit.committedInstType_0::FloatCmp            0      0.00%     75.95% # Class of committed instruction (Count)
testsys.cpu_cluster.cpus0.commit.committedInstType_0::FloatCvt            0      0.00%     75.95% # Class of committed instruction (Count)
testsys.cpu_cluster.cpus0.commit.committedInstType_0::FloatMult            0      0.00%     75.95% # Class of committed instruction (Count)
testsys.cpu_cluster.cpus0.commit.committedInstType_0::FloatMultAcc            0      0.00%     75.95% # Class of committed instruction (Count)
testsys.cpu_cluster.cpus0.commit.committedInstType_0::FloatDiv            0      0.00%     75.95% # Class of committed instruction (Count)
testsys.cpu_cluster.cpus0.commit.committedInstType_0::FloatMisc        14728      0.01%     75.96% # Class of committed instruction (Count)
testsys.cpu_cluster.cpus0.commit.committedInstType_0::FloatSqrt            0      0.00%     75.96% # Class of committed instruction (Count)
testsys.cpu_cluster.cpus0.commit.committedInstType_0::SimdAdd            0      0.00%     75.96% # Class of committed instruction (Count)
testsys.cpu_cluster.cpus0.commit.committedInstType_0::SimdAddAcc            0      0.00%     75.96% # Class of committed instruction (Count)
testsys.cpu_cluster.cpus0.commit.committedInstType_0::SimdAlu            3      0.00%     75.96% # Class of committed instruction (Count)
testsys.cpu_cluster.cpus0.commit.committedInstType_0::SimdCmp            0      0.00%     75.96% # Class of committed instruction (Count)
testsys.cpu_cluster.cpus0.commit.committedInstType_0::SimdCvt            0      0.00%     75.96% # Class of committed instruction (Count)
testsys.cpu_cluster.cpus0.commit.committedInstType_0::SimdMisc           75      0.00%     75.96% # Class of committed instruction (Count)
testsys.cpu_cluster.cpus0.commit.committedInstType_0::SimdMult            0      0.00%     75.96% # Class of committed instruction (Count)
testsys.cpu_cluster.cpus0.commit.committedInstType_0::SimdMultAcc            0      0.00%     75.96% # Class of committed instruction (Count)
testsys.cpu_cluster.cpus0.commit.committedInstType_0::SimdShift            0      0.00%     75.96% # Class of committed instruction (Count)
testsys.cpu_cluster.cpus0.commit.committedInstType_0::SimdShiftAcc            0      0.00%     75.96% # Class of committed instruction (Count)
testsys.cpu_cluster.cpus0.commit.committedInstType_0::SimdDiv            0      0.00%     75.96% # Class of committed instruction (Count)
testsys.cpu_cluster.cpus0.commit.committedInstType_0::SimdSqrt            0      0.00%     75.96% # Class of committed instruction (Count)
testsys.cpu_cluster.cpus0.commit.committedInstType_0::SimdFloatAdd            0      0.00%     75.96% # Class of committed instruction (Count)
testsys.cpu_cluster.cpus0.commit.committedInstType_0::SimdFloatAlu            0      0.00%     75.96% # Class of committed instruction (Count)
testsys.cpu_cluster.cpus0.commit.committedInstType_0::SimdFloatCmp            0      0.00%     75.96% # Class of committed instruction (Count)
testsys.cpu_cluster.cpus0.commit.committedInstType_0::SimdFloatCvt            0      0.00%     75.96% # Class of committed instruction (Count)
testsys.cpu_cluster.cpus0.commit.committedInstType_0::SimdFloatDiv            0      0.00%     75.96% # Class of committed instruction (Count)
testsys.cpu_cluster.cpus0.commit.committedInstType_0::SimdFloatMisc            0      0.00%     75.96% # Class of committed instruction (Count)
testsys.cpu_cluster.cpus0.commit.committedInstType_0::SimdFloatMult            0      0.00%     75.96% # Class of committed instruction (Count)
testsys.cpu_cluster.cpus0.commit.committedInstType_0::SimdFloatMultAcc            0      0.00%     75.96% # Class of committed instruction (Count)
testsys.cpu_cluster.cpus0.commit.committedInstType_0::SimdFloatSqrt            0      0.00%     75.96% # Class of committed instruction (Count)
testsys.cpu_cluster.cpus0.commit.committedInstType_0::SimdReduceAdd            0      0.00%     75.96% # Class of committed instruction (Count)
testsys.cpu_cluster.cpus0.commit.committedInstType_0::SimdReduceAlu            0      0.00%     75.96% # Class of committed instruction (Count)
testsys.cpu_cluster.cpus0.commit.committedInstType_0::SimdReduceCmp            0      0.00%     75.96% # Class of committed instruction (Count)
testsys.cpu_cluster.cpus0.commit.committedInstType_0::SimdFloatReduceAdd            0      0.00%     75.96% # Class of committed instruction (Count)
testsys.cpu_cluster.cpus0.commit.committedInstType_0::SimdFloatReduceCmp            0      0.00%     75.96% # Class of committed instruction (Count)
testsys.cpu_cluster.cpus0.commit.committedInstType_0::SimdAes            0      0.00%     75.96% # Class of committed instruction (Count)
testsys.cpu_cluster.cpus0.commit.committedInstType_0::SimdAesMix            0      0.00%     75.96% # Class of committed instruction (Count)
testsys.cpu_cluster.cpus0.commit.committedInstType_0::SimdSha1Hash            0      0.00%     75.96% # Class of committed instruction (Count)
testsys.cpu_cluster.cpus0.commit.committedInstType_0::SimdSha1Hash2            0      0.00%     75.96% # Class of committed instruction (Count)
testsys.cpu_cluster.cpus0.commit.committedInstType_0::SimdSha256Hash            0      0.00%     75.96% # Class of committed instruction (Count)
testsys.cpu_cluster.cpus0.commit.committedInstType_0::SimdSha256Hash2            0      0.00%     75.96% # Class of committed instruction (Count)
testsys.cpu_cluster.cpus0.commit.committedInstType_0::SimdShaSigma2            0      0.00%     75.96% # Class of committed instruction (Count)
testsys.cpu_cluster.cpus0.commit.committedInstType_0::SimdShaSigma3            0      0.00%     75.96% # Class of committed instruction (Count)
testsys.cpu_cluster.cpus0.commit.committedInstType_0::SimdPredAlu            0      0.00%     75.96% # Class of committed instruction (Count)
testsys.cpu_cluster.cpus0.commit.committedInstType_0::MemRead     17715175     13.85%     89.81% # Class of committed instruction (Count)
testsys.cpu_cluster.cpus0.commit.committedInstType_0::MemWrite     13033555     10.19%    100.00% # Class of committed instruction (Count)
testsys.cpu_cluster.cpus0.commit.committedInstType_0::FloatMemRead            0      0.00%    100.00% # Class of committed instruction (Count)
testsys.cpu_cluster.cpus0.commit.committedInstType_0::FloatMemWrite            0      0.00%    100.00% # Class of committed instruction (Count)
testsys.cpu_cluster.cpus0.commit.committedInstType_0::IprAccess            0      0.00%    100.00% # Class of committed instruction (Count)
testsys.cpu_cluster.cpus0.commit.committedInstType_0::InstPrefetch            0      0.00%    100.00% # Class of committed instruction (Count)
testsys.cpu_cluster.cpus0.commit.committedInstType_0::total    127890882                       # Class of committed instruction (Count)
testsys.cpu_cluster.cpus0.commit.commitEligibleSamples      7471693                       # number cycles where commit BW limit reached (Cycle)
testsys.cpu_cluster.cpus0.dcache.demandHits::cpu_cluster.cpus0.data     21621442                       # number of demand (read+write) hits (Count)
testsys.cpu_cluster.cpus0.dcache.demandHits::total     21621442                       # number of demand (read+write) hits (Count)
testsys.cpu_cluster.cpus0.dcache.overallHits::cpu_cluster.cpus0.data     21679254                       # number of overall hits (Count)
testsys.cpu_cluster.cpus0.dcache.overallHits::total     21679254                       # number of overall hits (Count)
testsys.cpu_cluster.cpus0.dcache.demandMisses::cpu_cluster.cpus0.data      8970245                       # number of demand (read+write) misses (Count)
testsys.cpu_cluster.cpus0.dcache.demandMisses::total      8970245                       # number of demand (read+write) misses (Count)
testsys.cpu_cluster.cpus0.dcache.overallMisses::cpu_cluster.cpus0.data      9475391                       # number of overall misses (Count)
testsys.cpu_cluster.cpus0.dcache.overallMisses::total      9475391                       # number of overall misses (Count)
testsys.cpu_cluster.cpus0.dcache.demandMissLatency::cpu_cluster.cpus0.data 400015658209                       # number of demand (read+write) miss ticks (Tick)
testsys.cpu_cluster.cpus0.dcache.demandMissLatency::total 400015658209                       # number of demand (read+write) miss ticks (Tick)
testsys.cpu_cluster.cpus0.dcache.overallMissLatency::cpu_cluster.cpus0.data 400015658209                       # number of overall miss ticks (Tick)
testsys.cpu_cluster.cpus0.dcache.overallMissLatency::total 400015658209                       # number of overall miss ticks (Tick)
testsys.cpu_cluster.cpus0.dcache.demandAccesses::cpu_cluster.cpus0.data     30591687                       # number of demand (read+write) accesses (Count)
testsys.cpu_cluster.cpus0.dcache.demandAccesses::total     30591687                       # number of demand (read+write) accesses (Count)
testsys.cpu_cluster.cpus0.dcache.overallAccesses::cpu_cluster.cpus0.data     31154645                       # number of overall (read+write) accesses (Count)
testsys.cpu_cluster.cpus0.dcache.overallAccesses::total     31154645                       # number of overall (read+write) accesses (Count)
testsys.cpu_cluster.cpus0.dcache.demandMissRate::cpu_cluster.cpus0.data     0.293225                       # miss rate for demand accesses (Ratio)
testsys.cpu_cluster.cpus0.dcache.demandMissRate::total     0.293225                       # miss rate for demand accesses (Ratio)
testsys.cpu_cluster.cpus0.dcache.overallMissRate::cpu_cluster.cpus0.data     0.304141                       # miss rate for overall accesses (Ratio)
testsys.cpu_cluster.cpus0.dcache.overallMissRate::total     0.304141                       # miss rate for overall accesses (Ratio)
testsys.cpu_cluster.cpus0.dcache.demandAvgMissLatency::cpu_cluster.cpus0.data 44593.615694                       # average overall miss latency ((Cycle/Count))
testsys.cpu_cluster.cpus0.dcache.demandAvgMissLatency::total 44593.615694                       # average overall miss latency ((Cycle/Count))
testsys.cpu_cluster.cpus0.dcache.overallAvgMissLatency::cpu_cluster.cpus0.data 42216.269303                       # average overall miss latency ((Cycle/Count))
testsys.cpu_cluster.cpus0.dcache.overallAvgMissLatency::total 42216.269303                       # average overall miss latency ((Cycle/Count))
testsys.cpu_cluster.cpus0.dcache.blockedCycles::no_mshrs     20905703                       # number of cycles access was blocked (Cycle)
testsys.cpu_cluster.cpus0.dcache.blockedCycles::no_targets       143070                       # number of cycles access was blocked (Cycle)
testsys.cpu_cluster.cpus0.dcache.blockedCauses::no_mshrs       624113                       # number of times access was blocked (Count)
testsys.cpu_cluster.cpus0.dcache.blockedCauses::no_targets          941                       # number of times access was blocked (Count)
testsys.cpu_cluster.cpus0.dcache.avgBlocked::no_mshrs    33.496663                       # average number of cycles each access was blocked ((Cycle/Count))
testsys.cpu_cluster.cpus0.dcache.avgBlocked::no_targets   152.040383                       # average number of cycles each access was blocked ((Cycle/Count))
testsys.cpu_cluster.cpus0.dcache.writebacks::writebacks      1882759                       # number of writebacks (Count)
testsys.cpu_cluster.cpus0.dcache.writebacks::total      1882759                       # number of writebacks (Count)
testsys.cpu_cluster.cpus0.dcache.demandMshrHits::cpu_cluster.cpus0.data      7352656                       # number of demand (read+write) MSHR hits (Count)
testsys.cpu_cluster.cpus0.dcache.demandMshrHits::total      7352656                       # number of demand (read+write) MSHR hits (Count)
testsys.cpu_cluster.cpus0.dcache.overallMshrHits::cpu_cluster.cpus0.data      7352656                       # number of overall MSHR hits (Count)
testsys.cpu_cluster.cpus0.dcache.overallMshrHits::total      7352656                       # number of overall MSHR hits (Count)
testsys.cpu_cluster.cpus0.dcache.demandMshrMisses::cpu_cluster.cpus0.data      1617589                       # number of demand (read+write) MSHR misses (Count)
testsys.cpu_cluster.cpus0.dcache.demandMshrMisses::total      1617589                       # number of demand (read+write) MSHR misses (Count)
testsys.cpu_cluster.cpus0.dcache.overallMshrMisses::cpu_cluster.cpus0.data      2121578                       # number of overall MSHR misses (Count)
testsys.cpu_cluster.cpus0.dcache.overallMshrMisses::total      2121578                       # number of overall MSHR misses (Count)
testsys.cpu_cluster.cpus0.dcache.overallMshrUncacheable::cpu_cluster.cpus0.data         5800                       # number of overall MSHR uncacheable misses (Count)
testsys.cpu_cluster.cpus0.dcache.overallMshrUncacheable::total         5800                       # number of overall MSHR uncacheable misses (Count)
testsys.cpu_cluster.cpus0.dcache.demandMshrMissLatency::cpu_cluster.cpus0.data  60741784091                       # number of demand (read+write) MSHR miss ticks (Tick)
testsys.cpu_cluster.cpus0.dcache.demandMshrMissLatency::total  60741784091                       # number of demand (read+write) MSHR miss ticks (Tick)
testsys.cpu_cluster.cpus0.dcache.overallMshrMissLatency::cpu_cluster.cpus0.data 138153760841                       # number of overall MSHR miss ticks (Tick)
testsys.cpu_cluster.cpus0.dcache.overallMshrMissLatency::total 138153760841                       # number of overall MSHR miss ticks (Tick)
testsys.cpu_cluster.cpus0.dcache.overallMshrUncacheableLatency::cpu_cluster.cpus0.data    170826250                       # number of overall MSHR uncacheable ticks (Tick)
testsys.cpu_cluster.cpus0.dcache.overallMshrUncacheableLatency::total    170826250                       # number of overall MSHR uncacheable ticks (Tick)
testsys.cpu_cluster.cpus0.dcache.demandMshrMissRate::cpu_cluster.cpus0.data     0.052877                       # mshr miss ratio for demand accesses (Ratio)
testsys.cpu_cluster.cpus0.dcache.demandMshrMissRate::total     0.052877                       # mshr miss ratio for demand accesses (Ratio)
testsys.cpu_cluster.cpus0.dcache.overallMshrMissRate::cpu_cluster.cpus0.data     0.068098                       # mshr miss ratio for overall accesses (Ratio)
testsys.cpu_cluster.cpus0.dcache.overallMshrMissRate::total     0.068098                       # mshr miss ratio for overall accesses (Ratio)
testsys.cpu_cluster.cpus0.dcache.demandAvgMshrMissLatency::cpu_cluster.cpus0.data 37550.814262                       # average overall mshr miss latency ((Cycle/Count))
testsys.cpu_cluster.cpus0.dcache.demandAvgMshrMissLatency::total 37550.814262                       # average overall mshr miss latency ((Cycle/Count))
testsys.cpu_cluster.cpus0.dcache.overallAvgMshrMissLatency::cpu_cluster.cpus0.data 65118.398117                       # average overall mshr miss latency ((Cycle/Count))
testsys.cpu_cluster.cpus0.dcache.overallAvgMshrMissLatency::total 65118.398117                       # average overall mshr miss latency ((Cycle/Count))
testsys.cpu_cluster.cpus0.dcache.overallAvgMshrUncacheableLatency::cpu_cluster.cpus0.data 29452.801724                       # average overall mshr uncacheable latency ((Cycle/Count))
testsys.cpu_cluster.cpus0.dcache.overallAvgMshrUncacheableLatency::total 29452.801724                       # average overall mshr uncacheable latency ((Cycle/Count))
testsys.cpu_cluster.cpus0.dcache.replacements      2042346                       # number of replacements (Count)
testsys.cpu_cluster.cpus0.dcache.CleanInvalidReq.missLatency::cpu_cluster.cpus0.data    705859000                       # number of CleanInvalidReq miss ticks (Tick)
testsys.cpu_cluster.cpus0.dcache.CleanInvalidReq.missLatency::total    705859000                       # number of CleanInvalidReq miss ticks (Tick)
testsys.cpu_cluster.cpus0.dcache.CleanInvalidReq.avgMissLatency::cpu_cluster.cpus0.data          inf                       # average CleanInvalidReq miss latency ((Tick/Count))
testsys.cpu_cluster.cpus0.dcache.CleanInvalidReq.avgMissLatency::total          inf                       # average CleanInvalidReq miss latency ((Tick/Count))
testsys.cpu_cluster.cpus0.dcache.CleanInvalidReq.mshrHits::cpu_cluster.cpus0.data        11764                       # number of CleanInvalidReq MSHR hits (Count)
testsys.cpu_cluster.cpus0.dcache.CleanInvalidReq.mshrHits::total        11764                       # number of CleanInvalidReq MSHR hits (Count)
testsys.cpu_cluster.cpus0.dcache.CleanInvalidReq.mshrMisses::cpu_cluster.cpus0.data         1763                       # number of CleanInvalidReq MSHR misses (Count)
testsys.cpu_cluster.cpus0.dcache.CleanInvalidReq.mshrMisses::total         1763                       # number of CleanInvalidReq MSHR misses (Count)
testsys.cpu_cluster.cpus0.dcache.CleanInvalidReq.mshrMissLatency::cpu_cluster.cpus0.data    702850500                       # number of CleanInvalidReq MSHR miss ticks (Tick)
testsys.cpu_cluster.cpus0.dcache.CleanInvalidReq.mshrMissLatency::total    702850500                       # number of CleanInvalidReq MSHR miss ticks (Tick)
testsys.cpu_cluster.cpus0.dcache.CleanInvalidReq.mshrMissRate::cpu_cluster.cpus0.data          inf                       # mshr miss rate for CleanInvalidReq accesses (Ratio)
testsys.cpu_cluster.cpus0.dcache.CleanInvalidReq.mshrMissRate::total          inf                       # mshr miss rate for CleanInvalidReq accesses (Ratio)
testsys.cpu_cluster.cpus0.dcache.CleanInvalidReq.avgMshrMissLatency::cpu_cluster.cpus0.data 398667.328417                       # average CleanInvalidReq mshr miss latency ((Tick/Count))
testsys.cpu_cluster.cpus0.dcache.CleanInvalidReq.avgMshrMissLatency::total 398667.328417                       # average CleanInvalidReq mshr miss latency ((Tick/Count))
testsys.cpu_cluster.cpus0.dcache.CleanSharedReq.missLatency::cpu_cluster.cpus0.data     17643750                       # number of CleanSharedReq miss ticks (Tick)
testsys.cpu_cluster.cpus0.dcache.CleanSharedReq.missLatency::total     17643750                       # number of CleanSharedReq miss ticks (Tick)
testsys.cpu_cluster.cpus0.dcache.CleanSharedReq.avgMissLatency::cpu_cluster.cpus0.data          inf                       # average CleanSharedReq miss latency ((Tick/Count))
testsys.cpu_cluster.cpus0.dcache.CleanSharedReq.avgMissLatency::total          inf                       # average CleanSharedReq miss latency ((Tick/Count))
testsys.cpu_cluster.cpus0.dcache.CleanSharedReq.mshrMisses::cpu_cluster.cpus0.data        14115                       # number of CleanSharedReq MSHR misses (Count)
testsys.cpu_cluster.cpus0.dcache.CleanSharedReq.mshrMisses::total        14115                       # number of CleanSharedReq MSHR misses (Count)
testsys.cpu_cluster.cpus0.dcache.CleanSharedReq.mshrMissLatency::cpu_cluster.cpus0.data     10600365                       # number of CleanSharedReq MSHR miss ticks (Tick)
testsys.cpu_cluster.cpus0.dcache.CleanSharedReq.mshrMissLatency::total     10600365                       # number of CleanSharedReq MSHR miss ticks (Tick)
testsys.cpu_cluster.cpus0.dcache.CleanSharedReq.mshrMissRate::cpu_cluster.cpus0.data          inf                       # mshr miss rate for CleanSharedReq accesses (Ratio)
testsys.cpu_cluster.cpus0.dcache.CleanSharedReq.mshrMissRate::total          inf                       # mshr miss rate for CleanSharedReq accesses (Ratio)
testsys.cpu_cluster.cpus0.dcache.CleanSharedReq.avgMshrMissLatency::cpu_cluster.cpus0.data          751                       # average CleanSharedReq mshr miss latency ((Tick/Count))
testsys.cpu_cluster.cpus0.dcache.CleanSharedReq.avgMshrMissLatency::total          751                       # average CleanSharedReq mshr miss latency ((Tick/Count))
testsys.cpu_cluster.cpus0.dcache.InvalidateReq.mshrMisses::cpu_cluster.cpus0.data       119812                       # number of InvalidateReq MSHR misses (Count)
testsys.cpu_cluster.cpus0.dcache.InvalidateReq.mshrMisses::total       119812                       # number of InvalidateReq MSHR misses (Count)
testsys.cpu_cluster.cpus0.dcache.InvalidateReq.mshrMissLatency::cpu_cluster.cpus0.data   1587512000                       # number of InvalidateReq MSHR miss ticks (Tick)
testsys.cpu_cluster.cpus0.dcache.InvalidateReq.mshrMissLatency::total   1587512000                       # number of InvalidateReq MSHR miss ticks (Tick)
testsys.cpu_cluster.cpus0.dcache.InvalidateReq.mshrMissRate::cpu_cluster.cpus0.data          inf                       # mshr miss rate for InvalidateReq accesses (Ratio)
testsys.cpu_cluster.cpus0.dcache.InvalidateReq.mshrMissRate::total          inf                       # mshr miss rate for InvalidateReq accesses (Ratio)
testsys.cpu_cluster.cpus0.dcache.InvalidateReq.avgMshrMissLatency::cpu_cluster.cpus0.data 13250.025039                       # average InvalidateReq mshr miss latency ((Tick/Count))
testsys.cpu_cluster.cpus0.dcache.InvalidateReq.avgMshrMissLatency::total 13250.025039                       # average InvalidateReq mshr miss latency ((Tick/Count))
testsys.cpu_cluster.cpus0.dcache.LoadLockedReq.hits::cpu_cluster.cpus0.data        57829                       # number of LoadLockedReq hits (Count)
testsys.cpu_cluster.cpus0.dcache.LoadLockedReq.hits::total        57829                       # number of LoadLockedReq hits (Count)
testsys.cpu_cluster.cpus0.dcache.LoadLockedReq.misses::cpu_cluster.cpus0.data         4429                       # number of LoadLockedReq misses (Count)
testsys.cpu_cluster.cpus0.dcache.LoadLockedReq.misses::total         4429                       # number of LoadLockedReq misses (Count)
testsys.cpu_cluster.cpus0.dcache.LoadLockedReq.missLatency::cpu_cluster.cpus0.data     31680500                       # number of LoadLockedReq miss ticks (Tick)
testsys.cpu_cluster.cpus0.dcache.LoadLockedReq.missLatency::total     31680500                       # number of LoadLockedReq miss ticks (Tick)
testsys.cpu_cluster.cpus0.dcache.LoadLockedReq.accesses::cpu_cluster.cpus0.data        62258                       # number of LoadLockedReq accesses(hits+misses) (Count)
testsys.cpu_cluster.cpus0.dcache.LoadLockedReq.accesses::total        62258                       # number of LoadLockedReq accesses(hits+misses) (Count)
testsys.cpu_cluster.cpus0.dcache.LoadLockedReq.missRate::cpu_cluster.cpus0.data     0.071139                       # miss rate for LoadLockedReq accesses (Ratio)
testsys.cpu_cluster.cpus0.dcache.LoadLockedReq.missRate::total     0.071139                       # miss rate for LoadLockedReq accesses (Ratio)
testsys.cpu_cluster.cpus0.dcache.LoadLockedReq.avgMissLatency::cpu_cluster.cpus0.data  7152.969068                       # average LoadLockedReq miss latency ((Tick/Count))
testsys.cpu_cluster.cpus0.dcache.LoadLockedReq.avgMissLatency::total  7152.969068                       # average LoadLockedReq miss latency ((Tick/Count))
testsys.cpu_cluster.cpus0.dcache.LoadLockedReq.mshrHits::cpu_cluster.cpus0.data         4098                       # number of LoadLockedReq MSHR hits (Count)
testsys.cpu_cluster.cpus0.dcache.LoadLockedReq.mshrHits::total         4098                       # number of LoadLockedReq MSHR hits (Count)
testsys.cpu_cluster.cpus0.dcache.LoadLockedReq.mshrMisses::cpu_cluster.cpus0.data          331                       # number of LoadLockedReq MSHR misses (Count)
testsys.cpu_cluster.cpus0.dcache.LoadLockedReq.mshrMisses::total          331                       # number of LoadLockedReq MSHR misses (Count)
testsys.cpu_cluster.cpus0.dcache.LoadLockedReq.mshrMissLatency::cpu_cluster.cpus0.data      4958750                       # number of LoadLockedReq MSHR miss ticks (Tick)
testsys.cpu_cluster.cpus0.dcache.LoadLockedReq.mshrMissLatency::total      4958750                       # number of LoadLockedReq MSHR miss ticks (Tick)
testsys.cpu_cluster.cpus0.dcache.LoadLockedReq.mshrMissRate::cpu_cluster.cpus0.data     0.005317                       # mshr miss rate for LoadLockedReq accesses (Ratio)
testsys.cpu_cluster.cpus0.dcache.LoadLockedReq.mshrMissRate::total     0.005317                       # mshr miss rate for LoadLockedReq accesses (Ratio)
testsys.cpu_cluster.cpus0.dcache.LoadLockedReq.avgMshrMissLatency::cpu_cluster.cpus0.data 14981.117825                       # average LoadLockedReq mshr miss latency ((Tick/Count))
testsys.cpu_cluster.cpus0.dcache.LoadLockedReq.avgMshrMissLatency::total 14981.117825                       # average LoadLockedReq mshr miss latency ((Tick/Count))
testsys.cpu_cluster.cpus0.dcache.ReadReq.hits::cpu_cluster.cpus0.data     14109210                       # number of ReadReq hits (Count)
testsys.cpu_cluster.cpus0.dcache.ReadReq.hits::total     14109210                       # number of ReadReq hits (Count)
testsys.cpu_cluster.cpus0.dcache.ReadReq.misses::cpu_cluster.cpus0.data      3706134                       # number of ReadReq misses (Count)
testsys.cpu_cluster.cpus0.dcache.ReadReq.misses::total      3706134                       # number of ReadReq misses (Count)
testsys.cpu_cluster.cpus0.dcache.ReadReq.missLatency::cpu_cluster.cpus0.data 122697100750                       # number of ReadReq miss ticks (Tick)
testsys.cpu_cluster.cpus0.dcache.ReadReq.missLatency::total 122697100750                       # number of ReadReq miss ticks (Tick)
testsys.cpu_cluster.cpus0.dcache.ReadReq.accesses::cpu_cluster.cpus0.data     17815344                       # number of ReadReq accesses(hits+misses) (Count)
testsys.cpu_cluster.cpus0.dcache.ReadReq.accesses::total     17815344                       # number of ReadReq accesses(hits+misses) (Count)
testsys.cpu_cluster.cpus0.dcache.ReadReq.missRate::cpu_cluster.cpus0.data     0.208030                       # miss rate for ReadReq accesses (Ratio)
testsys.cpu_cluster.cpus0.dcache.ReadReq.missRate::total     0.208030                       # miss rate for ReadReq accesses (Ratio)
testsys.cpu_cluster.cpus0.dcache.ReadReq.avgMissLatency::cpu_cluster.cpus0.data 33106.493384                       # average ReadReq miss latency ((Tick/Count))
testsys.cpu_cluster.cpus0.dcache.ReadReq.avgMissLatency::total 33106.493384                       # average ReadReq miss latency ((Tick/Count))
testsys.cpu_cluster.cpus0.dcache.ReadReq.mshrHits::cpu_cluster.cpus0.data      2930080                       # number of ReadReq MSHR hits (Count)
testsys.cpu_cluster.cpus0.dcache.ReadReq.mshrHits::total      2930080                       # number of ReadReq MSHR hits (Count)
testsys.cpu_cluster.cpus0.dcache.ReadReq.mshrMisses::cpu_cluster.cpus0.data       776054                       # number of ReadReq MSHR misses (Count)
testsys.cpu_cluster.cpus0.dcache.ReadReq.mshrMisses::total       776054                       # number of ReadReq MSHR misses (Count)
testsys.cpu_cluster.cpus0.dcache.ReadReq.mshrUncacheable::cpu_cluster.cpus0.data         1692                       # number of ReadReq MSHR uncacheable (Count)
testsys.cpu_cluster.cpus0.dcache.ReadReq.mshrUncacheable::total         1692                       # number of ReadReq MSHR uncacheable (Count)
testsys.cpu_cluster.cpus0.dcache.ReadReq.mshrMissLatency::cpu_cluster.cpus0.data  14802400000                       # number of ReadReq MSHR miss ticks (Tick)
testsys.cpu_cluster.cpus0.dcache.ReadReq.mshrMissLatency::total  14802400000                       # number of ReadReq MSHR miss ticks (Tick)
testsys.cpu_cluster.cpus0.dcache.ReadReq.mshrUncacheableLatency::cpu_cluster.cpus0.data    170826250                       # number of ReadReq MSHR uncacheable ticks (Tick)
testsys.cpu_cluster.cpus0.dcache.ReadReq.mshrUncacheableLatency::total    170826250                       # number of ReadReq MSHR uncacheable ticks (Tick)
testsys.cpu_cluster.cpus0.dcache.ReadReq.mshrMissRate::cpu_cluster.cpus0.data     0.043561                       # mshr miss rate for ReadReq accesses (Ratio)
testsys.cpu_cluster.cpus0.dcache.ReadReq.mshrMissRate::total     0.043561                       # mshr miss rate for ReadReq accesses (Ratio)
testsys.cpu_cluster.cpus0.dcache.ReadReq.avgMshrMissLatency::cpu_cluster.cpus0.data 19073.930422                       # average ReadReq mshr miss latency ((Tick/Count))
testsys.cpu_cluster.cpus0.dcache.ReadReq.avgMshrMissLatency::total 19073.930422                       # average ReadReq mshr miss latency ((Tick/Count))
testsys.cpu_cluster.cpus0.dcache.ReadReq.avgMshrUncacheableLatency::cpu_cluster.cpus0.data 100961.140662                       # average ReadReq mshr uncacheable latency ((Tick/Count))
testsys.cpu_cluster.cpus0.dcache.ReadReq.avgMshrUncacheableLatency::total 100961.140662                       # average ReadReq mshr uncacheable latency ((Tick/Count))
testsys.cpu_cluster.cpus0.dcache.SoftPFExReq.hits::cpu_cluster.cpus0.data        56400                       # number of SoftPFExReq hits (Count)
testsys.cpu_cluster.cpus0.dcache.SoftPFExReq.hits::total        56400                       # number of SoftPFExReq hits (Count)
testsys.cpu_cluster.cpus0.dcache.SoftPFExReq.misses::cpu_cluster.cpus0.data       503611                       # number of SoftPFExReq misses (Count)
testsys.cpu_cluster.cpus0.dcache.SoftPFExReq.misses::total       503611                       # number of SoftPFExReq misses (Count)
testsys.cpu_cluster.cpus0.dcache.SoftPFExReq.accesses::cpu_cluster.cpus0.data       560011                       # number of SoftPFExReq accesses(hits+misses) (Count)
testsys.cpu_cluster.cpus0.dcache.SoftPFExReq.accesses::total       560011                       # number of SoftPFExReq accesses(hits+misses) (Count)
testsys.cpu_cluster.cpus0.dcache.SoftPFExReq.missRate::cpu_cluster.cpus0.data     0.899288                       # miss rate for SoftPFExReq accesses (Ratio)
testsys.cpu_cluster.cpus0.dcache.SoftPFExReq.missRate::total     0.899288                       # miss rate for SoftPFExReq accesses (Ratio)
testsys.cpu_cluster.cpus0.dcache.SoftPFExReq.mshrMisses::cpu_cluster.cpus0.data       502472                       # number of SoftPFExReq MSHR misses (Count)
testsys.cpu_cluster.cpus0.dcache.SoftPFExReq.mshrMisses::total       502472                       # number of SoftPFExReq MSHR misses (Count)
testsys.cpu_cluster.cpus0.dcache.SoftPFExReq.mshrMissLatency::cpu_cluster.cpus0.data  77372185500                       # number of SoftPFExReq MSHR miss ticks (Tick)
testsys.cpu_cluster.cpus0.dcache.SoftPFExReq.mshrMissLatency::total  77372185500                       # number of SoftPFExReq MSHR miss ticks (Tick)
testsys.cpu_cluster.cpus0.dcache.SoftPFExReq.mshrMissRate::cpu_cluster.cpus0.data     0.897254                       # mshr miss rate for SoftPFExReq accesses (Ratio)
testsys.cpu_cluster.cpus0.dcache.SoftPFExReq.mshrMissRate::total     0.897254                       # mshr miss rate for SoftPFExReq accesses (Ratio)
testsys.cpu_cluster.cpus0.dcache.SoftPFExReq.avgMshrMissLatency::cpu_cluster.cpus0.data 153983.078659                       # average SoftPFExReq mshr miss latency ((Tick/Count))
testsys.cpu_cluster.cpus0.dcache.SoftPFExReq.avgMshrMissLatency::total 153983.078659                       # average SoftPFExReq mshr miss latency ((Tick/Count))
testsys.cpu_cluster.cpus0.dcache.SoftPFReq.hits::cpu_cluster.cpus0.data         1412                       # number of SoftPFReq hits (Count)
testsys.cpu_cluster.cpus0.dcache.SoftPFReq.hits::total         1412                       # number of SoftPFReq hits (Count)
testsys.cpu_cluster.cpus0.dcache.SoftPFReq.misses::cpu_cluster.cpus0.data         1535                       # number of SoftPFReq misses (Count)
testsys.cpu_cluster.cpus0.dcache.SoftPFReq.misses::total         1535                       # number of SoftPFReq misses (Count)
testsys.cpu_cluster.cpus0.dcache.SoftPFReq.accesses::cpu_cluster.cpus0.data         2947                       # number of SoftPFReq accesses(hits+misses) (Count)
testsys.cpu_cluster.cpus0.dcache.SoftPFReq.accesses::total         2947                       # number of SoftPFReq accesses(hits+misses) (Count)
testsys.cpu_cluster.cpus0.dcache.SoftPFReq.missRate::cpu_cluster.cpus0.data     0.520869                       # miss rate for SoftPFReq accesses (Ratio)
testsys.cpu_cluster.cpus0.dcache.SoftPFReq.missRate::total     0.520869                       # miss rate for SoftPFReq accesses (Ratio)
testsys.cpu_cluster.cpus0.dcache.SoftPFReq.mshrMisses::cpu_cluster.cpus0.data         1517                       # number of SoftPFReq MSHR misses (Count)
testsys.cpu_cluster.cpus0.dcache.SoftPFReq.mshrMisses::total         1517                       # number of SoftPFReq MSHR misses (Count)
testsys.cpu_cluster.cpus0.dcache.SoftPFReq.mshrMissLatency::cpu_cluster.cpus0.data     39791250                       # number of SoftPFReq MSHR miss ticks (Tick)
testsys.cpu_cluster.cpus0.dcache.SoftPFReq.mshrMissLatency::total     39791250                       # number of SoftPFReq MSHR miss ticks (Tick)
testsys.cpu_cluster.cpus0.dcache.SoftPFReq.mshrMissRate::cpu_cluster.cpus0.data     0.514761                       # mshr miss rate for SoftPFReq accesses (Ratio)
testsys.cpu_cluster.cpus0.dcache.SoftPFReq.mshrMissRate::total     0.514761                       # mshr miss rate for SoftPFReq accesses (Ratio)
testsys.cpu_cluster.cpus0.dcache.SoftPFReq.avgMshrMissLatency::cpu_cluster.cpus0.data 26230.224127                       # average SoftPFReq mshr miss latency ((Tick/Count))
testsys.cpu_cluster.cpus0.dcache.SoftPFReq.avgMshrMissLatency::total 26230.224127                       # average SoftPFReq mshr miss latency ((Tick/Count))
testsys.cpu_cluster.cpus0.dcache.StoreCondReq.hits::cpu_cluster.cpus0.data        45873                       # number of StoreCondReq hits (Count)
testsys.cpu_cluster.cpus0.dcache.StoreCondReq.hits::total        45873                       # number of StoreCondReq hits (Count)
testsys.cpu_cluster.cpus0.dcache.StoreCondReq.misses::cpu_cluster.cpus0.data           31                       # number of StoreCondReq misses (Count)
testsys.cpu_cluster.cpus0.dcache.StoreCondReq.misses::total           31                       # number of StoreCondReq misses (Count)
testsys.cpu_cluster.cpus0.dcache.StoreCondReq.missLatency::cpu_cluster.cpus0.data       103250                       # number of StoreCondReq miss ticks (Tick)
testsys.cpu_cluster.cpus0.dcache.StoreCondReq.missLatency::total       103250                       # number of StoreCondReq miss ticks (Tick)
testsys.cpu_cluster.cpus0.dcache.StoreCondReq.accesses::cpu_cluster.cpus0.data        45904                       # number of StoreCondReq accesses(hits+misses) (Count)
testsys.cpu_cluster.cpus0.dcache.StoreCondReq.accesses::total        45904                       # number of StoreCondReq accesses(hits+misses) (Count)
testsys.cpu_cluster.cpus0.dcache.StoreCondReq.missRate::cpu_cluster.cpus0.data     0.000675                       # miss rate for StoreCondReq accesses (Ratio)
testsys.cpu_cluster.cpus0.dcache.StoreCondReq.missRate::total     0.000675                       # miss rate for StoreCondReq accesses (Ratio)
testsys.cpu_cluster.cpus0.dcache.StoreCondReq.avgMissLatency::cpu_cluster.cpus0.data  3330.645161                       # average StoreCondReq miss latency ((Tick/Count))
testsys.cpu_cluster.cpus0.dcache.StoreCondReq.avgMissLatency::total  3330.645161                       # average StoreCondReq miss latency ((Tick/Count))
testsys.cpu_cluster.cpus0.dcache.StoreCondReq.mshrMisses::cpu_cluster.cpus0.data           31                       # number of StoreCondReq MSHR misses (Count)
testsys.cpu_cluster.cpus0.dcache.StoreCondReq.mshrMisses::total           31                       # number of StoreCondReq MSHR misses (Count)
testsys.cpu_cluster.cpus0.dcache.StoreCondReq.mshrMissLatency::cpu_cluster.cpus0.data        95500                       # number of StoreCondReq MSHR miss ticks (Tick)
testsys.cpu_cluster.cpus0.dcache.StoreCondReq.mshrMissLatency::total        95500                       # number of StoreCondReq MSHR miss ticks (Tick)
testsys.cpu_cluster.cpus0.dcache.StoreCondReq.mshrMissRate::cpu_cluster.cpus0.data     0.000675                       # mshr miss rate for StoreCondReq accesses (Ratio)
testsys.cpu_cluster.cpus0.dcache.StoreCondReq.mshrMissRate::total     0.000675                       # mshr miss rate for StoreCondReq accesses (Ratio)
testsys.cpu_cluster.cpus0.dcache.StoreCondReq.avgMshrMissLatency::cpu_cluster.cpus0.data  3080.645161                       # average StoreCondReq mshr miss latency ((Tick/Count))
testsys.cpu_cluster.cpus0.dcache.StoreCondReq.avgMshrMissLatency::total  3080.645161                       # average StoreCondReq mshr miss latency ((Tick/Count))
testsys.cpu_cluster.cpus0.dcache.SwapReq.hits::cpu_cluster.cpus0.data        54857                       # number of SwapReq hits (Count)
testsys.cpu_cluster.cpus0.dcache.SwapReq.hits::total        54857                       # number of SwapReq hits (Count)
testsys.cpu_cluster.cpus0.dcache.SwapReq.misses::cpu_cluster.cpus0.data         5286                       # number of SwapReq misses (Count)
testsys.cpu_cluster.cpus0.dcache.SwapReq.misses::total         5286                       # number of SwapReq misses (Count)
testsys.cpu_cluster.cpus0.dcache.SwapReq.missLatency::cpu_cluster.cpus0.data     38069000                       # number of SwapReq miss ticks (Tick)
testsys.cpu_cluster.cpus0.dcache.SwapReq.missLatency::total     38069000                       # number of SwapReq miss ticks (Tick)
testsys.cpu_cluster.cpus0.dcache.SwapReq.accesses::cpu_cluster.cpus0.data        60143                       # number of SwapReq accesses(hits+misses) (Count)
testsys.cpu_cluster.cpus0.dcache.SwapReq.accesses::total        60143                       # number of SwapReq accesses(hits+misses) (Count)
testsys.cpu_cluster.cpus0.dcache.SwapReq.missRate::cpu_cluster.cpus0.data     0.087891                       # miss rate for SwapReq accesses (Ratio)
testsys.cpu_cluster.cpus0.dcache.SwapReq.missRate::total     0.087891                       # miss rate for SwapReq accesses (Ratio)
testsys.cpu_cluster.cpus0.dcache.SwapReq.avgMissLatency::cpu_cluster.cpus0.data  7201.853954                       # average SwapReq miss latency ((Tick/Count))
testsys.cpu_cluster.cpus0.dcache.SwapReq.avgMissLatency::total  7201.853954                       # average SwapReq miss latency ((Tick/Count))
testsys.cpu_cluster.cpus0.dcache.SwapReq.mshrHits::cpu_cluster.cpus0.data            4                       # number of SwapReq MSHR hits (Count)
testsys.cpu_cluster.cpus0.dcache.SwapReq.mshrHits::total            4                       # number of SwapReq MSHR hits (Count)
testsys.cpu_cluster.cpus0.dcache.SwapReq.mshrMisses::cpu_cluster.cpus0.data         5282                       # number of SwapReq MSHR misses (Count)
testsys.cpu_cluster.cpus0.dcache.SwapReq.mshrMisses::total         5282                       # number of SwapReq MSHR misses (Count)
testsys.cpu_cluster.cpus0.dcache.SwapReq.mshrMissLatency::cpu_cluster.cpus0.data     36602500                       # number of SwapReq MSHR miss ticks (Tick)
testsys.cpu_cluster.cpus0.dcache.SwapReq.mshrMissLatency::total     36602500                       # number of SwapReq MSHR miss ticks (Tick)
testsys.cpu_cluster.cpus0.dcache.SwapReq.mshrMissRate::cpu_cluster.cpus0.data     0.087824                       # mshr miss rate for SwapReq accesses (Ratio)
testsys.cpu_cluster.cpus0.dcache.SwapReq.mshrMissRate::total     0.087824                       # mshr miss rate for SwapReq accesses (Ratio)
testsys.cpu_cluster.cpus0.dcache.SwapReq.avgMshrMissLatency::cpu_cluster.cpus0.data  6929.666793                       # average SwapReq mshr miss latency ((Tick/Count))
testsys.cpu_cluster.cpus0.dcache.SwapReq.avgMshrMissLatency::total  6929.666793                       # average SwapReq mshr miss latency ((Tick/Count))
testsys.cpu_cluster.cpus0.dcache.WriteLineReq.hits::cpu_cluster.cpus0.data         3782                       # number of WriteLineReq hits (Count)
testsys.cpu_cluster.cpus0.dcache.WriteLineReq.hits::total         3782                       # number of WriteLineReq hits (Count)
testsys.cpu_cluster.cpus0.dcache.WriteLineReq.misses::cpu_cluster.cpus0.data       156072                       # number of WriteLineReq misses (Count)
testsys.cpu_cluster.cpus0.dcache.WriteLineReq.misses::total       156072                       # number of WriteLineReq misses (Count)
testsys.cpu_cluster.cpus0.dcache.WriteLineReq.missLatency::cpu_cluster.cpus0.data  11113664753                       # number of WriteLineReq miss ticks (Tick)
testsys.cpu_cluster.cpus0.dcache.WriteLineReq.missLatency::total  11113664753                       # number of WriteLineReq miss ticks (Tick)
testsys.cpu_cluster.cpus0.dcache.WriteLineReq.accesses::cpu_cluster.cpus0.data       159854                       # number of WriteLineReq accesses(hits+misses) (Count)
testsys.cpu_cluster.cpus0.dcache.WriteLineReq.accesses::total       159854                       # number of WriteLineReq accesses(hits+misses) (Count)
testsys.cpu_cluster.cpus0.dcache.WriteLineReq.missRate::cpu_cluster.cpus0.data     0.976341                       # miss rate for WriteLineReq accesses (Ratio)
testsys.cpu_cluster.cpus0.dcache.WriteLineReq.missRate::total     0.976341                       # miss rate for WriteLineReq accesses (Ratio)
testsys.cpu_cluster.cpus0.dcache.WriteLineReq.avgMissLatency::cpu_cluster.cpus0.data 71208.575228                       # average WriteLineReq miss latency ((Tick/Count))
testsys.cpu_cluster.cpus0.dcache.WriteLineReq.avgMissLatency::total 71208.575228                       # average WriteLineReq miss latency ((Tick/Count))
testsys.cpu_cluster.cpus0.dcache.WriteLineReq.mshrHits::cpu_cluster.cpus0.data          381                       # number of WriteLineReq MSHR hits (Count)
testsys.cpu_cluster.cpus0.dcache.WriteLineReq.mshrHits::total          381                       # number of WriteLineReq MSHR hits (Count)
[...]
testsys.pci_devices3.EtherDevice.postedTxOk            0                       # Number of TxOk interrupts posted to CPU (Count)
testsys.pci_devices3.EtherDevice.totalTxOk            0                       # Total number of TxOk written to ISR (Count)
testsys.pci_devices3.EtherDevice.coalescedTxOk          nan                       # Average number of TxOk's coalesced into each post ((Count/Count))
testsys.pci_devices3.EtherDevice.postedTxIdle            0                       # Number of TxIdle interrupts posted to CPU (Count)
testsys.pci_devices3.EtherDevice.totalTxIdle            0                       # Total number of TxIdle written to ISR (Count)
testsys.pci_devices3.EtherDevice.coalescedTxIdle          nan                       # Average number of TxIdle's coalesced into each post ((Count/Count))
testsys.pci_devices3.EtherDevice.postedTxDesc            0                       # Number of TxDesc interrupts posted to CPU (Count)
testsys.pci_devices3.EtherDevice.totalTxDesc            0                       # Total number of TxDesc written to ISR (Count)
testsys.pci_devices3.EtherDevice.coalescedTxDesc          nan                       # Average number of TxDesc's coalesced into each post ((Count/Count))
testsys.pci_devices3.EtherDevice.postedRxOrn            0                       # Number of RxOrn posted to CPU (Count)
testsys.pci_devices3.EtherDevice.totalRxOrn            0                       # Total number of RxOrn written to ISR (Count)
testsys.pci_devices3.EtherDevice.coalescedRxOrn          nan                       # Average number of RxOrn's coalesced into each post ((Count/Count))
testsys.pci_devices3.EtherDevice.coalescedTotal          nan                       # Average number of interrupts coalesced into each post ((Count/Count))
testsys.pci_devices3.EtherDevice.droppedPackets            0                       # Number of packets dropped (Count)
testsys.pci_devices3.power_state.pwrStateResidencyTicks::UNDEFINED 389647582500                       # Cumulative time (in ticks) in various power states (Tick)
testsys.pci_devices4.EtherDevice.postedInterrupts            0                       # Number of posts to CPU (Count)
testsys.pci_devices4.EtherDevice.descDmaReads            0                       # Number of descriptors the device read w/ DMA (Count)
testsys.pci_devices4.EtherDevice.descDmaWrites            0                       # Number of descriptors the device wrote w/ DMA (Count)
testsys.pci_devices4.EtherDevice.descDmaRdBytes            0                       # Number of descriptor bytes read w/ DMA (Count)
testsys.pci_devices4.EtherDevice.descDmaWrBytes            0                       # Number of descriptor bytes write w/ DMA (Count)
testsys.pci_devices4.EtherDevice.postedSwi            0                       # Number of software interrupts posted to CPU (Count)
testsys.pci_devices4.EtherDevice.totalSwi            0                       # Total number of Swi written to ISR (Count)
testsys.pci_devices4.EtherDevice.coalescedSwi          nan                       # Average number of Swi's coalesced into each post ((Count/Count))
testsys.pci_devices4.EtherDevice.postedRxIdle            0                       # Number of rxIdle interrupts posted to CPU (Count)
testsys.pci_devices4.EtherDevice.totalRxIdle            0                       # Total number of RxIdle written to ISR (Count)
testsys.pci_devices4.EtherDevice.coalescedRxIdle          nan                       # Average number of RxIdle's coalesced into each post ((Count/Count))
testsys.pci_devices4.EtherDevice.postedRxOk            0                       # Number of RxOk interrupts posted to CPU (Count)
testsys.pci_devices4.EtherDevice.totalRxOk            0                       # Total number of RxOk written to ISR (Count)
testsys.pci_devices4.EtherDevice.coalescedRxOk          nan                       # Average number of RxOk's coalesced into each post ((Count/Count))
testsys.pci_devices4.EtherDevice.postedRxDesc            0                       # Number of RxDesc interrupts posted to CPU (Count)
testsys.pci_devices4.EtherDevice.totalRxDesc            0                       # Total number of RxDesc written to ISR (Count)
testsys.pci_devices4.EtherDevice.coalescedRxDesc          nan                       # Average number of RxDesc's coalesced into each post ((Count/Count))
testsys.pci_devices4.EtherDevice.postedTxOk            0                       # Number of TxOk interrupts posted to CPU (Count)
testsys.pci_devices4.EtherDevice.totalTxOk            0                       # Total number of TxOk written to ISR (Count)
testsys.pci_devices4.EtherDevice.coalescedTxOk          nan                       # Average number of TxOk's coalesced into each post ((Count/Count))
testsys.pci_devices4.EtherDevice.postedTxIdle            0                       # Number of TxIdle interrupts posted to CPU (Count)
testsys.pci_devices4.EtherDevice.totalTxIdle            0                       # Total number of TxIdle written to ISR (Count)
testsys.pci_devices4.EtherDevice.coalescedTxIdle          nan                       # Average number of TxIdle's coalesced into each post ((Count/Count))
testsys.pci_devices4.EtherDevice.postedTxDesc            0                       # Number of TxDesc interrupts posted to CPU (Count)
testsys.pci_devices4.EtherDevice.totalTxDesc            0                       # Total number of TxDesc written to ISR (Count)
testsys.pci_devices4.EtherDevice.coalescedTxDesc          nan                       # Average number of TxDesc's coalesced into each post ((Count/Count))
testsys.pci_devices4.EtherDevice.postedRxOrn            0                       # Number of RxOrn posted to CPU (Count)
testsys.pci_devices4.EtherDevice.totalRxOrn            0                       # Total number of RxOrn written to ISR (Count)
testsys.pci_devices4.EtherDevice.coalescedRxOrn          nan                       # Average number of RxOrn's coalesced into each post ((Count/Count))
testsys.pci_devices4.EtherDevice.coalescedTotal          nan                       # Average number of interrupts coalesced into each post ((Count/Count))
testsys.pci_devices4.EtherDevice.droppedPackets            0                       # Number of packets dropped (Count)
testsys.pci_devices4.power_state.pwrStateResidencyTicks::UNDEFINED 389647582500                       # Cumulative time (in ticks) in various power states (Tick)
testsys.realview.bootmem.bytesRead::cpu_cluster.cpus0.inst          448                       # Number of bytes read from this memory (Byte)
testsys.realview.bootmem.bytesRead::cpu_cluster.cpus0.data           28                       # Number of bytes read from this memory (Byte)
testsys.realview.bootmem.bytesRead::cpu_cluster.cpus1.inst          512                       # Number of bytes read from this memory (Byte)
testsys.realview.bootmem.bytesRead::cpu_cluster.cpus1.data            8                       # Number of bytes read from this memory (Byte)
testsys.realview.bootmem.bytesRead::cpu_cluster.cpus2.inst          512                       # Number of bytes read from this memory (Byte)
testsys.realview.bootmem.bytesRead::cpu_cluster.cpus2.data            8                       # Number of bytes read from this memory (Byte)
testsys.realview.bootmem.bytesRead::cpu_cluster.cpus3.inst          512                       # Number of bytes read from this memory (Byte)
testsys.realview.bootmem.bytesRead::cpu_cluster.cpus3.data            8                       # Number of bytes read from this memory (Byte)
testsys.realview.bootmem.bytesRead::total         2036                       # Number of bytes read from this memory (Byte)
testsys.realview.bootmem.bytesInstRead::cpu_cluster.cpus0.inst          448                       # Number of instructions bytes read from this memory (Byte)
testsys.realview.bootmem.bytesInstRead::cpu_cluster.cpus1.inst          512                       # Number of instructions bytes read from this memory (Byte)
testsys.realview.bootmem.bytesInstRead::cpu_cluster.cpus2.inst          512                       # Number of instructions bytes read from this memory (Byte)
testsys.realview.bootmem.bytesInstRead::cpu_cluster.cpus3.inst          512                       # Number of instructions bytes read from this memory (Byte)
testsys.realview.bootmem.bytesInstRead::total         1984                       # Number of instructions bytes read from this memory (Byte)
testsys.realview.bootmem.numReads::cpu_cluster.cpus0.inst            7                       # Number of read requests responded to by this memory (Count)
testsys.realview.bootmem.numReads::cpu_cluster.cpus0.data            4                       # Number of read requests responded to by this memory (Count)
testsys.realview.bootmem.numReads::cpu_cluster.cpus1.inst            8                       # Number of read requests responded to by this memory (Count)
testsys.realview.bootmem.numReads::cpu_cluster.cpus1.data            1                       # Number of read requests responded to by this memory (Count)
testsys.realview.bootmem.numReads::cpu_cluster.cpus2.inst            8                       # Number of read requests responded to by this memory (Count)
testsys.realview.bootmem.numReads::cpu_cluster.cpus2.data            1                       # Number of read requests responded to by this memory (Count)
testsys.realview.bootmem.numReads::cpu_cluster.cpus3.inst            8                       # Number of read requests responded to by this memory (Count)
testsys.realview.bootmem.numReads::cpu_cluster.cpus3.data            1                       # Number of read requests responded to by this memory (Count)
testsys.realview.bootmem.numReads::total           38                       # Number of read requests responded to by this memory (Count)
testsys.realview.bootmem.bwRead::cpu_cluster.cpus0.inst         1150                       # Total read bandwidth from this memory ((Byte/Second))
testsys.realview.bootmem.bwRead::cpu_cluster.cpus0.data           72                       # Total read bandwidth from this memory ((Byte/Second))
testsys.realview.bootmem.bwRead::cpu_cluster.cpus1.inst         1314                       # Total read bandwidth from this memory ((Byte/Second))
testsys.realview.bootmem.bwRead::cpu_cluster.cpus1.data           21                       # Total read bandwidth from this memory ((Byte/Second))
testsys.realview.bootmem.bwRead::cpu_cluster.cpus2.inst         1314                       # Total read bandwidth from this memory ((Byte/Second))
testsys.realview.bootmem.bwRead::cpu_cluster.cpus2.data           21                       # Total read bandwidth from this memory ((Byte/Second))
testsys.realview.bootmem.bwRead::cpu_cluster.cpus3.inst         1314                       # Total read bandwidth from this memory ((Byte/Second))
testsys.realview.bootmem.bwRead::cpu_cluster.cpus3.data           21                       # Total read bandwidth from this memory ((Byte/Second))
testsys.realview.bootmem.bwRead::total           5225                       # Total read bandwidth from this memory ((Byte/Second))
testsys.realview.bootmem.bwInstRead::cpu_cluster.cpus0.inst         1150                       # Instruction read bandwidth from this memory ((Byte/Second))
testsys.realview.bootmem.bwInstRead::cpu_cluster.cpus1.inst         1314                       # Instruction read bandwidth from this memory ((Byte/Second))
testsys.realview.bootmem.bwInstRead::cpu_cluster.cpus2.inst         1314                       # Instruction read bandwidth from this memory ((Byte/Second))
testsys.realview.bootmem.bwInstRead::cpu_cluster.cpus3.inst         1314                       # Instruction read bandwidth from this memory ((Byte/Second))
testsys.realview.bootmem.bwInstRead::total         5092                       # Instruction read bandwidth from this memory ((Byte/Second))
testsys.realview.bootmem.bwTotal::cpu_cluster.cpus0.inst         1150                       # Total bandwidth to/from this memory ((Byte/Second))
testsys.realview.bootmem.bwTotal::cpu_cluster.cpus0.data           72                       # Total bandwidth to/from this memory ((Byte/Second))
testsys.realview.bootmem.bwTotal::cpu_cluster.cpus1.inst         1314                       # Total bandwidth to/from this memory ((Byte/Second))
testsys.realview.bootmem.bwTotal::cpu_cluster.cpus1.data           21                       # Total bandwidth to/from this memory ((Byte/Second))
testsys.realview.bootmem.bwTotal::cpu_cluster.cpus2.inst         1314                       # Total bandwidth to/from this memory ((Byte/Second))
testsys.realview.bootmem.bwTotal::cpu_cluster.cpus2.data           21                       # Total bandwidth to/from this memory ((Byte/Second))
testsys.realview.bootmem.bwTotal::cpu_cluster.cpus3.inst         1314                       # Total bandwidth to/from this memory ((Byte/Second))
testsys.realview.bootmem.bwTotal::cpu_cluster.cpus3.data           21                       # Total bandwidth to/from this memory ((Byte/Second))
testsys.realview.bootmem.bwTotal::total          5225                       # Total bandwidth to/from this memory ((Byte/Second))
testsys.realview.bootmem.power_state.pwrStateResidencyTicks::UNDEFINED 389647582500                       # Cumulative time (in ticks) in various power states (Tick)
testsys.realview.clock24MHz.clock               41667                       # Clock period in ticks (Tick)
testsys.realview.clock32KHz.clock            31250000                       # Clock period in ticks (Tick)
testsys.realview.dcc.osc_cpu.clock              16667                       # Clock period in ticks (Tick)
testsys.realview.dcc.osc_ddr.clock              25000                       # Clock period in ticks (Tick)
testsys.realview.dcc.osc_hsbm.clock             25000                       # Clock period in ticks (Tick)
testsys.realview.dcc.osc_pxl.clock              42105                       # Clock period in ticks (Tick)
testsys.realview.dcc.osc_smb.clock              20000                       # Clock period in ticks (Tick)
testsys.realview.dcc.osc_sys.clock              16667                       # Clock period in ticks (Tick)
testsys.realview.el2_watchdog.power_state.pwrStateResidencyTicks::UNDEFINED 389647582500                       # Cumulative time (in ticks) in various power states (Tick)
testsys.realview.energy_ctrl.power_state.pwrStateResidencyTicks::UNDEFINED 389647582500                       # Cumulative time (in ticks) in various power states (Tick)
testsys.realview.flash0.power_state.pwrStateResidencyTicks::UNDEFINED 389647582500                       # Cumulative time (in ticks) in various power states (Tick)
testsys.realview.flash1.power_state.pwrStateResidencyTicks::UNDEFINED 389647582500                       # Cumulative time (in ticks) in various power states (Tick)
testsys.realview.generic_timer_mem.frames0.power_state.pwrStateResidencyTicks::UNDEFINED 389647582500                       # Cumulative time (in ticks) in various power states (Tick)
testsys.realview.generic_timer_mem.frames1.power_state.pwrStateResidencyTicks::UNDEFINED 389647582500                       # Cumulative time (in ticks) in various power states (Tick)
testsys.realview.generic_timer_mem.power_state.pwrStateResidencyTicks::UNDEFINED 389647582500                       # Cumulative time (in ticks) in various power states (Tick)
testsys.realview.gic.power_state.pwrStateResidencyTicks::UNDEFINED 389647582500                       # Cumulative time (in ticks) in various power states (Tick)
testsys.realview.gicv2m.power_state.pwrStateResidencyTicks::UNDEFINED 389647582500                       # Cumulative time (in ticks) in various power states (Tick)
testsys.realview.io_voltage.voltage          3.300000                       # Voltage in Volts (Volt)
testsys.realview.kmi0.power_state.pwrStateResidencyTicks::UNDEFINED 389647582500                       # Cumulative time (in ticks) in various power states (Tick)
testsys.realview.kmi1.power_state.pwrStateResidencyTicks::UNDEFINED 389647582500                       # Cumulative time (in ticks) in various power states (Tick)
testsys.realview.mcc.osc_clcd.clock             42105                       # Clock period in ticks (Tick)
testsys.realview.mcc.osc_mcc.clock              20000                       # Clock period in ticks (Tick)
testsys.realview.mcc.osc_peripheral.clock        41667                       # Clock period in ticks (Tick)
testsys.realview.mcc.osc_system_bus.clock        41667                       # Clock period in ticks (Tick)
testsys.realview.non_trusted_sram.power_state.pwrStateResidencyTicks::UNDEFINED 389647582500                       # Cumulative time (in ticks) in various power states (Tick)
testsys.realview.pci_host.power_state.pwrStateResidencyTicks::UNDEFINED 389647582500                       # Cumulative time (in ticks) in various power states (Tick)
testsys.realview.pwr_ctrl.power_state.pwrStateResidencyTicks::UNDEFINED 389647582500                       # Cumulative time (in ticks) in various power states (Tick)
testsys.realview.realview_io.power_state.pwrStateResidencyTicks::UNDEFINED 389647582500                       # Cumulative time (in ticks) in various power states (Tick)
testsys.realview.rtc.power_state.pwrStateResidencyTicks::UNDEFINED 389647582500                       # Cumulative time (in ticks) in various power states (Tick)
testsys.realview.system_watchdog.power_state.pwrStateResidencyTicks::UNDEFINED 389647582500                       # Cumulative time (in ticks) in various power states (Tick)
testsys.realview.trusted_sram.power_state.pwrStateResidencyTicks::UNDEFINED 389647582500                       # Cumulative time (in ticks) in various power states (Tick)
testsys.realview.trusted_watchdog.power_state.pwrStateResidencyTicks::UNDEFINED 389647582500                       # Cumulative time (in ticks) in various power states (Tick)
testsys.realview.uart0.power_state.pwrStateResidencyTicks::UNDEFINED 389647582500                       # Cumulative time (in ticks) in various power states (Tick)
testsys.realview.uart1.power_state.pwrStateResidencyTicks::UNDEFINED 389647582500                       # Cumulative time (in ticks) in various power states (Tick)
testsys.realview.uart2.power_state.pwrStateResidencyTicks::UNDEFINED 389647582500                       # Cumulative time (in ticks) in various power states (Tick)
testsys.realview.uart3.power_state.pwrStateResidencyTicks::UNDEFINED 389647582500                       # Cumulative time (in ticks) in various power states (Tick)
testsys.realview.vgic.power_state.pwrStateResidencyTicks::UNDEFINED 389647582500                       # Cumulative time (in ticks) in various power states (Tick)
testsys.realview.vio0.power_state.pwrStateResidencyTicks::UNDEFINED 389647582500                       # Cumulative time (in ticks) in various power states (Tick)
testsys.realview.vio1.power_state.pwrStateResidencyTicks::UNDEFINED 389647582500                       # Cumulative time (in ticks) in various power states (Tick)
testsys.realview.vram.power_state.pwrStateResidencyTicks::UNDEFINED 389647582500                       # Cumulative time (in ticks) in various power states (Tick)
testsys.realview.watchdog.power_state.pwrStateResidencyTicks::UNDEFINED 389647582500                       # Cumulative time (in ticks) in various power states (Tick)
testsys.voltage_domain.voltage                      1                       # Voltage in Volts (Volt)
testsys.workload.inst.arm                           0                       # number of arm instructions executed (Count)
testsys.workload.inst.quiesce                    7514                       # number of quiesce instructions executed (Count)

---------- End Simulation Statistics   ----------
