
---------- Begin Simulation Statistics ----------
simSeconds                                   3.785727                       # Number of seconds simulated (Second)
simTicks                                 3785726849500                       # Number of ticks simulated (Tick)
finalTick                                4084484539750                       # Number of ticks from beginning of simulation (restored from checkpoints and never reset) (Tick)
simFreq                                  1000000000000                       # The number of ticks per simulated second ((Tick/Second))
hostSeconds                                  22805.03                       # Real time elapsed on the host (Second)
hostTickRate                                166004037                       # The number of ticks simulated per host second (ticks/s) ((Tick/Second))
hostMemory                                    9285336                       # Number of bytes of host memory used (Byte)
simInsts                                  15598476613                       # Number of instructions simulated (Count)
simOps                                    15654574069                       # Number of ops (including micro ops) simulated (Count)
hostInstRate                                   683993                       # Simulator instruction rate (inst/s) ((Count/Second))
hostOpRate                                     686453                       # Simulator op (including micro ops) rate (op/s) ((Count/Second))
testsys.clk_domain.clock                         1000                       # Clock period in ticks (Tick)
testsys.cpu_cluster.clk_domain.clock              250                       # Clock period in ticks (Tick)
testsys.cpu_cluster.cpus0.numCycles       15142357964                       # Number of cpu cycles simulated (Cycle)
testsys.cpu_cluster.cpus0.numWorkItemsStarted            0                       # Number of work items this cpu started (Count)
testsys.cpu_cluster.cpus0.numWorkItemsCompleted            0                       # Number of work items this cpu completed (Count)
testsys.cpu_cluster.cpus0.exec_context.thread_0.numInsts  15126045789                       # Number of instructions committed (Count)
testsys.cpu_cluster.cpus0.exec_context.thread_0.numOps  15142133795                       # Number of ops (including micro ops) committed (Count)
testsys.cpu_cluster.cpus0.exec_context.thread_0.numIntAluAccesses  12408272360                       # Number of integer alu accesses (Count)
testsys.cpu_cluster.cpus0.exec_context.thread_0.numFpAluAccesses            0                       # Number of float alu accesses (Count)
testsys.cpu_cluster.cpus0.exec_context.thread_0.numVecAluAccesses   3028970295                       # Number of vector alu accesses (Count)
testsys.cpu_cluster.cpus0.exec_context.thread_0.numCallsReturns     63651517                       # Number of times a function call or return occured (Count)
testsys.cpu_cluster.cpus0.exec_context.thread_0.numCondCtrlInsts   1556968815                       # Number of instructions that are conditional controls (Count)
testsys.cpu_cluster.cpus0.exec_context.thread_0.numIntInsts  12408272360                       # Number of integer instructions (Count)
testsys.cpu_cluster.cpus0.exec_context.thread_0.numFpInsts            0                       # Number of float instructions (Count)
testsys.cpu_cluster.cpus0.exec_context.thread_0.numVecInsts   3028970295                       # Number of vector instructions (Count)
testsys.cpu_cluster.cpus0.exec_context.thread_0.numIntRegReads  23353668549                       # Number of times the integer registers were read (Count)
testsys.cpu_cluster.cpus0.exec_context.thread_0.numIntRegWrites  11069038679                       # Number of times the integer registers were written (Count)
testsys.cpu_cluster.cpus0.exec_context.thread_0.numFpRegReads            0                       # Number of times the floating registers were read (Count)
testsys.cpu_cluster.cpus0.exec_context.thread_0.numFpRegWrites            0                       # Number of times the floating registers were written (Count)
testsys.cpu_cluster.cpus0.exec_context.thread_0.numVecRegReads   2444156901                       # Number of times the vector registers were read (Count)
testsys.cpu_cluster.cpus0.exec_context.thread_0.numVecRegWrites   2352355140                       # Number of times the vector registers were written (Count)
testsys.cpu_cluster.cpus0.exec_context.thread_0.numVecPredRegReads            0                       # Number of times the predicate registers were read (Count)
testsys.cpu_cluster.cpus0.exec_context.thread_0.numVecPredRegWrites            0                       # Number of times the predicate registers were written (Count)
testsys.cpu_cluster.cpus0.exec_context.thread_0.numCCRegReads   5556913453                       # Number of times the CC registers were read (Count)
testsys.cpu_cluster.cpus0.exec_context.thread_0.numCCRegWrites   5473191948                       # Number of times the CC registers were written (Count)
testsys.cpu_cluster.cpus0.exec_context.thread_0.numMemRefs   4441989052                       # Number of memory refs (Count)
testsys.cpu_cluster.cpus0.exec_context.thread_0.numLoadInsts   3677113340                       # Number of load instructions (Count)
testsys.cpu_cluster.cpus0.exec_context.thread_0.numStoreInsts    764875712                       # Number of store instructions (Count)
testsys.cpu_cluster.cpus0.exec_context.thread_0.numIdleCycles 772055.958279                       # Number of idle cycles (Cycle)
testsys.cpu_cluster.cpus0.exec_context.thread_0.numBusyCycles 15141585908.041721                       # Number of busy cycles (Cycle)
testsys.cpu_cluster.cpus0.exec_context.thread_0.notIdleFraction     0.999949                       # Percentage of non-idle cycles (Ratio)
testsys.cpu_cluster.cpus0.exec_context.thread_0.idleFraction     0.000051                       # Percentage of idle cycles (Ratio)
testsys.cpu_cluster.cpus0.exec_context.thread_0.numBranches   1713109356                       # Number of branches fetched (Count)
testsys.cpu_cluster.cpus0.exec_context.thread_0.statExecutedInstType::No_OpClass         1592      0.00%      0.00% # Class of executed instruction. (Count)
testsys.cpu_cluster.cpus0.exec_context.thread_0.statExecutedInstType::IntAlu   9491282130     62.68%     62.68% # Class of executed instruction. (Count)
testsys.cpu_cluster.cpus0.exec_context.thread_0.statExecutedInstType::IntMult     12805298      0.08%     62.77% # Class of executed instruction. (Count)
testsys.cpu_cluster.cpus0.exec_context.thread_0.statExecutedInstType::IntDiv       287309      0.00%     62.77% # Class of executed instruction. (Count)
testsys.cpu_cluster.cpus0.exec_context.thread_0.statExecutedInstType::FloatAdd    374770214      2.48%     65.24% # Class of executed instruction. (Count)
testsys.cpu_cluster.cpus0.exec_context.thread_0.statExecutedInstType::FloatCmp    269252976      1.78%     67.02% # Class of executed instruction. (Count)
testsys.cpu_cluster.cpus0.exec_context.thread_0.statExecutedInstType::FloatCvt     12068739      0.08%     67.10% # Class of executed instruction. (Count)
testsys.cpu_cluster.cpus0.exec_context.thread_0.statExecutedInstType::FloatMult    204209143      1.35%     68.45% # Class of executed instruction. (Count)
testsys.cpu_cluster.cpus0.exec_context.thread_0.statExecutedInstType::FloatMultAcc     42254013      0.28%     68.73% # Class of executed instruction. (Count)
testsys.cpu_cluster.cpus0.exec_context.thread_0.statExecutedInstType::FloatDiv     14480222      0.10%     68.82% # Class of executed instruction. (Count)
testsys.cpu_cluster.cpus0.exec_context.thread_0.statExecutedInstType::FloatMisc    277904462      1.84%     70.66% # Class of executed instruction. (Count)
testsys.cpu_cluster.cpus0.exec_context.thread_0.statExecutedInstType::FloatSqrt            0      0.00%     70.66% # Class of executed instruction. (Count)
testsys.cpu_cluster.cpus0.exec_context.thread_0.statExecutedInstType::SimdAdd            0      0.00%     70.66% # Class of executed instruction. (Count)
testsys.cpu_cluster.cpus0.exec_context.thread_0.statExecutedInstType::SimdAddAcc            0      0.00%     70.66% # Class of executed instruction. (Count)
testsys.cpu_cluster.cpus0.exec_context.thread_0.statExecutedInstType::SimdAlu       724126      0.00%     70.66% # Class of executed instruction. (Count)
testsys.cpu_cluster.cpus0.exec_context.thread_0.statExecutedInstType::SimdCmp            0      0.00%     70.66% # Class of executed instruction. (Count)
testsys.cpu_cluster.cpus0.exec_context.thread_0.statExecutedInstType::SimdCvt        44824      0.00%     70.66% # Class of executed instruction. (Count)
testsys.cpu_cluster.cpus0.exec_context.thread_0.statExecutedInstType::SimdMisc        61193      0.00%     70.66% # Class of executed instruction. (Count)
testsys.cpu_cluster.cpus0.exec_context.thread_0.statExecutedInstType::SimdMult            0      0.00%     70.66% # Class of executed instruction. (Count)
testsys.cpu_cluster.cpus0.exec_context.thread_0.statExecutedInstType::SimdMultAcc            0      0.00%     70.66% # Class of executed instruction. (Count)
testsys.cpu_cluster.cpus0.exec_context.thread_0.statExecutedInstType::SimdShift            5      0.00%     70.66% # Class of executed instruction. (Count)
testsys.cpu_cluster.cpus0.exec_context.thread_0.statExecutedInstType::SimdShiftAcc            0      0.00%     70.66% # Class of executed instruction. (Count)
testsys.cpu_cluster.cpus0.exec_context.thread_0.statExecutedInstType::SimdDiv            0      0.00%     70.66% # Class of executed instruction. (Count)
testsys.cpu_cluster.cpus0.exec_context.thread_0.statExecutedInstType::SimdSqrt            0      0.00%     70.66% # Class of executed instruction. (Count)
testsys.cpu_cluster.cpus0.exec_context.thread_0.statExecutedInstType::SimdFloatAdd            0      0.00%     70.66% # Class of executed instruction. (Count)
testsys.cpu_cluster.cpus0.exec_context.thread_0.statExecutedInstType::SimdFloatAlu            0      0.00%     70.66% # Class of executed instruction. (Count)
testsys.cpu_cluster.cpus0.exec_context.thread_0.statExecutedInstType::SimdFloatCmp            0      0.00%     70.66% # Class of executed instruction. (Count)
testsys.cpu_cluster.cpus0.exec_context.thread_0.statExecutedInstType::SimdFloatCvt            0      0.00%     70.66% # Class of executed instruction. (Count)
testsys.cpu_cluster.cpus0.exec_context.thread_0.statExecutedInstType::SimdFloatDiv            0      0.00%     70.66% # Class of executed instruction. (Count)
testsys.cpu_cluster.cpus0.exec_context.thread_0.statExecutedInstType::SimdFloatMisc            0      0.00%     70.66% # Class of executed instruction. (Count)
testsys.cpu_cluster.cpus0.exec_context.thread_0.statExecutedInstType::SimdFloatMult            0      0.00%     70.66% # Class of executed instruction. (Count)
testsys.cpu_cluster.cpus0.exec_context.thread_0.statExecutedInstType::SimdFloatMultAcc            0      0.00%     70.66% # Class of executed instruction. (Count)
testsys.cpu_cluster.cpus0.exec_context.thread_0.statExecutedInstType::SimdFloatSqrt            0      0.00%     70.66% # Class of executed instruction. (Count)
testsys.cpu_cluster.cpus0.exec_context.thread_0.statExecutedInstType::SimdReduceAdd            0      0.00%     70.66% # Class of executed instruction. (Count)
testsys.cpu_cluster.cpus0.exec_context.thread_0.statExecutedInstType::SimdReduceAlu            0      0.00%     70.66% # Class of executed instruction. (Count)
testsys.cpu_cluster.cpus0.exec_context.thread_0.statExecutedInstType::SimdReduceCmp            0      0.00%     70.66% # Class of executed instruction. (Count)
testsys.cpu_cluster.cpus0.exec_context.thread_0.statExecutedInstType::SimdFloatReduceAdd            0      0.00%     70.66% # Class of executed instruction. (Count)
testsys.cpu_cluster.cpus0.exec_context.thread_0.statExecutedInstType::SimdFloatReduceCmp            0      0.00%     70.66% # Class of executed instruction. (Count)
testsys.cpu_cluster.cpus0.exec_context.thread_0.statExecutedInstType::SimdAes            0      0.00%     70.66% # Class of executed instruction. (Count)
testsys.cpu_cluster.cpus0.exec_context.thread_0.statExecutedInstType::SimdAesMix            0      0.00%     70.66% # Class of executed instruction. (Count)
testsys.cpu_cluster.cpus0.exec_context.thread_0.statExecutedInstType::SimdSha1Hash            0      0.00%     70.66% # Class of executed instruction. (Count)
testsys.cpu_cluster.cpus0.exec_context.thread_0.statExecutedInstType::SimdSha1Hash2            0      0.00%     70.66% # Class of executed instruction. (Count)
testsys.cpu_cluster.cpus0.exec_context.thread_0.statExecutedInstType::SimdSha256Hash            0      0.00%     70.66% # Class of executed instruction. (Count)
testsys.cpu_cluster.cpus0.exec_context.thread_0.statExecutedInstType::SimdSha256Hash2            0      0.00%     70.66% # Class of executed instruction. (Count)
testsys.cpu_cluster.cpus0.exec_context.thread_0.statExecutedInstType::SimdShaSigma2            0      0.00%     70.66% # Class of executed instruction. (Count)
testsys.cpu_cluster.cpus0.exec_context.thread_0.statExecutedInstType::SimdShaSigma3            0      0.00%     70.66% # Class of executed instruction. (Count)
testsys.cpu_cluster.cpus0.exec_context.thread_0.statExecutedInstType::SimdPredAlu            0      0.00%     70.66% # Class of executed instruction. (Count)
testsys.cpu_cluster.cpus0.exec_context.thread_0.statExecutedInstType::MemRead   3677113340     24.28%     94.95% # Class of executed instruction. (Count)
testsys.cpu_cluster.cpus0.exec_context.thread_0.statExecutedInstType::MemWrite    764875712      5.05%    100.00% # Class of executed instruction. (Count)
testsys.cpu_cluster.cpus0.exec_context.thread_0.statExecutedInstType::FloatMemRead            0      0.00%    100.00% # Class of executed instruction. (Count)
testsys.cpu_cluster.cpus0.exec_context.thread_0.statExecutedInstType::FloatMemWrite            0      0.00%    100.00% # Class of executed instruction. (Count)
testsys.cpu_cluster.cpus0.exec_context.thread_0.statExecutedInstType::IprAccess            0      0.00%    100.00% # Class of executed instruction. (Count)
testsys.cpu_cluster.cpus0.exec_context.thread_0.statExecutedInstType::InstPrefetch            0      0.00%    100.00% # Class of executed instruction. (Count)
testsys.cpu_cluster.cpus0.exec_context.thread_0.statExecutedInstType::total  15142135298                       # Class of executed instruction. (Count)
testsys.cpu_cluster.cpus0.mmu.dtb.instHits            0                       # ITB inst hits (Count)
testsys.cpu_cluster.cpus0.mmu.dtb.instMisses            0                       # ITB inst misses (Count)
testsys.cpu_cluster.cpus0.mmu.dtb.readHits   3676902440                       # DTB read hits (Count)
testsys.cpu_cluster.cpus0.mmu.dtb.readMisses       215866                       # DTB read misses (Count)
testsys.cpu_cluster.cpus0.mmu.dtb.writeHits    764869292                       # DTB write hits (Count)
testsys.cpu_cluster.cpus0.mmu.dtb.writeMisses         6483                       # DTB write misses (Count)
testsys.cpu_cluster.cpus0.mmu.dtb.inserts       221722                       # Number of times an entry is inserted into the TLB (Count)
testsys.cpu_cluster.cpus0.mmu.dtb.flushTlb            0                       # Number of times complete TLB was flushed (Count)
testsys.cpu_cluster.cpus0.mmu.dtb.flushTlbMva            0                       # Number of times TLB was flushed by MVA (Count)
testsys.cpu_cluster.cpus0.mmu.dtb.flushTlbMvaAsid           78                       # Number of times TLB was flushed by MVA & ASID (Count)
testsys.cpu_cluster.cpus0.mmu.dtb.flushTlbAsid            6                       # Number of times TLB was flushed by ASID (Count)
testsys.cpu_cluster.cpus0.mmu.dtb.flushedEntries          174                       # Number of entries that have been flushed from TLB (Count)
testsys.cpu_cluster.cpus0.mmu.dtb.alignFaults            0                       # Number of TLB faults due to alignment restrictions (Count)
testsys.cpu_cluster.cpus0.mmu.dtb.prefetchFaults           14                       # Number of TLB faults due to prefetch (Count)
testsys.cpu_cluster.cpus0.mmu.dtb.domainFaults            0                       # Number of TLB faults due to domain restrictions (Count)
testsys.cpu_cluster.cpus0.mmu.dtb.permsFaults           11                       # Number of TLB faults due to permissions restrictions (Count)
testsys.cpu_cluster.cpus0.mmu.dtb.readAccesses   3677118306                       # DTB read accesses (Count)
testsys.cpu_cluster.cpus0.mmu.dtb.writeAccesses    764875775                       # DTB write accesses (Count)
testsys.cpu_cluster.cpus0.mmu.dtb.instAccesses            0                       # ITB inst accesses (Count)
testsys.cpu_cluster.cpus0.mmu.dtb.hits     4441771732                       # Total TLB (inst and data) hits (Count)
testsys.cpu_cluster.cpus0.mmu.dtb.misses       222349                       # Total TLB (inst and data) misses (Count)
testsys.cpu_cluster.cpus0.mmu.dtb.accesses   4441994081                       # Total TLB (inst and data) accesses (Count)
testsys.cpu_cluster.cpus0.mmu.dtb_walker.walks       222335                       # Table walker walks requested (Count)
testsys.cpu_cluster.cpus0.mmu.dtb_walker.walksLongDescriptor       222335                       # Table walker walks initiated with long descriptors (Count)
testsys.cpu_cluster.cpus0.mmu.dtb_walker.walkWaitTime::samples       222335                       # Table walker wait (enqueue to first request) latency (Tick)
testsys.cpu_cluster.cpus0.mmu.dtb_walker.walkWaitTime::0       222335    100.00%    100.00% # Table walker wait (enqueue to first request) latency (Tick)
testsys.cpu_cluster.cpus0.mmu.dtb_walker.walkWaitTime::total       222335                       # Table walker wait (enqueue to first request) latency (Tick)
testsys.cpu_cluster.cpus0.mmu.dtb_walker.pageSizes::4KiB       220683     99.53%     99.53% # Table walker page sizes translated (Count)
testsys.cpu_cluster.cpus0.mmu.dtb_walker.pageSizes::2MiB         1039      0.47%    100.00% # Table walker page sizes translated (Count)
testsys.cpu_cluster.cpus0.mmu.dtb_walker.pageSizes::total       221722                       # Table walker page sizes translated (Count)
testsys.cpu_cluster.cpus0.mmu.dtb_walker.requestOrigin_Requested::Data       222335                       # Table walker requests started/completed, data/inst (Count)
testsys.cpu_cluster.cpus0.mmu.dtb_walker.requestOrigin_Requested::Inst            0                       # Table walker requests started/completed, data/inst (Count)
testsys.cpu_cluster.cpus0.mmu.dtb_walker.requestOrigin_Requested::total       222335                       # Table walker requests started/completed, data/inst (Count)
testsys.cpu_cluster.cpus0.mmu.dtb_walker.requestOrigin_Completed::Data       221722                       # Table walker requests started/completed, data/inst (Count)
testsys.cpu_cluster.cpus0.mmu.dtb_walker.requestOrigin_Completed::Inst            0                       # Table walker requests started/completed, data/inst (Count)
testsys.cpu_cluster.cpus0.mmu.dtb_walker.requestOrigin_Completed::total       221722                       # Table walker requests started/completed, data/inst (Count)
testsys.cpu_cluster.cpus0.mmu.dtb_walker.requestOrigin::total       444057                       # Table walker requests started/completed, data/inst (Count)
testsys.cpu_cluster.cpus0.mmu.dtb_walker.power_state.pwrStateResidencyTicks::UNDEFINED 4084484539750                       # Cumulative time (in ticks) in various power states (Tick)
testsys.cpu_cluster.cpus0.mmu.itb.instHits  15126044007                       # ITB inst hits (Count)
testsys.cpu_cluster.cpus0.mmu.itb.instMisses         3304                       # ITB inst misses (Count)
testsys.cpu_cluster.cpus0.mmu.itb.readHits            0                       # DTB read hits (Count)
testsys.cpu_cluster.cpus0.mmu.itb.readMisses            0                       # DTB read misses (Count)
testsys.cpu_cluster.cpus0.mmu.itb.writeHits            0                       # DTB write hits (Count)
testsys.cpu_cluster.cpus0.mmu.itb.writeMisses            0                       # DTB write misses (Count)
testsys.cpu_cluster.cpus0.mmu.itb.inserts         3285                       # Number of times an entry is inserted into the TLB (Count)
testsys.cpu_cluster.cpus0.mmu.itb.flushTlb            0                       # Number of times complete TLB was flushed (Count)
testsys.cpu_cluster.cpus0.mmu.itb.flushTlbMva            0                       # Number of times TLB was flushed by MVA (Count)
testsys.cpu_cluster.cpus0.mmu.itb.flushTlbMvaAsid           78                       # Number of times TLB was flushed by MVA & ASID (Count)
testsys.cpu_cluster.cpus0.mmu.itb.flushTlbAsid            6                       # Number of times TLB was flushed by ASID (Count)
testsys.cpu_cluster.cpus0.mmu.itb.flushedEntries          178                       # Number of entries that have been flushed from TLB (Count)
testsys.cpu_cluster.cpus0.mmu.itb.alignFaults            0                       # Number of TLB faults due to alignment restrictions (Count)
testsys.cpu_cluster.cpus0.mmu.itb.prefetchFaults            0                       # Number of TLB faults due to prefetch (Count)
testsys.cpu_cluster.cpus0.mmu.itb.domainFaults            0                       # Number of TLB faults due to domain restrictions (Count)
testsys.cpu_cluster.cpus0.mmu.itb.permsFaults            0                       # Number of TLB faults due to permissions restrictions (Count)
testsys.cpu_cluster.cpus0.mmu.itb.readAccesses            0                       # DTB read accesses (Count)
testsys.cpu_cluster.cpus0.mmu.itb.writeAccesses            0                       # DTB write accesses (Count)
testsys.cpu_cluster.cpus0.mmu.itb.instAccesses  15126047311                       # ITB inst accesses (Count)
testsys.cpu_cluster.cpus0.mmu.itb.hits    15126044007                       # Total TLB (inst and data) hits (Count)
testsys.cpu_cluster.cpus0.mmu.itb.misses         3304                       # Total TLB (inst and data) misses (Count)
testsys.cpu_cluster.cpus0.mmu.itb.accesses  15126047311                       # Total TLB (inst and data) accesses (Count)
testsys.cpu_cluster.cpus0.mmu.itb_walker.walks         3304                       # Table walker walks requested (Count)
testsys.cpu_cluster.cpus0.mmu.itb_walker.walksLongDescriptor         3304                       # Table walker walks initiated with long descriptors (Count)
testsys.cpu_cluster.cpus0.mmu.itb_walker.walkWaitTime::samples         3304                       # Table walker wait (enqueue to first request) latency (Tick)
testsys.cpu_cluster.cpus0.mmu.itb_walker.walkWaitTime::0         3304    100.00%    100.00% # Table walker wait (enqueue to first request) latency (Tick)
testsys.cpu_cluster.cpus0.mmu.itb_walker.walkWaitTime::total         3304                       # Table walker wait (enqueue to first request) latency (Tick)
testsys.cpu_cluster.cpus0.mmu.itb_walker.pageSizes::4KiB         3210     97.72%     97.72% # Table walker page sizes translated (Count)
testsys.cpu_cluster.cpus0.mmu.itb_walker.pageSizes::2MiB           75      2.28%    100.00% # Table walker page sizes translated (Count)
testsys.cpu_cluster.cpus0.mmu.itb_walker.pageSizes::total         3285                       # Table walker page sizes translated (Count)
testsys.cpu_cluster.cpus0.mmu.itb_walker.requestOrigin_Requested::Data            0                       # Table walker requests started/completed, data/inst (Count)
testsys.cpu_cluster.cpus0.mmu.itb_walker.requestOrigin_Requested::Inst         3304                       # Table walker requests started/completed, data/inst (Count)
testsys.cpu_cluster.cpus0.mmu.itb_walker.requestOrigin_Requested::total         3304                       # Table walker requests started/completed, data/inst (Count)
testsys.cpu_cluster.cpus0.mmu.itb_walker.requestOrigin_Completed::Data            0                       # Table walker requests started/completed, data/inst (Count)
testsys.cpu_cluster.cpus0.mmu.itb_walker.requestOrigin_Completed::Inst         3285                       # Table walker requests started/completed, data/inst (Count)
testsys.cpu_cluster.cpus0.mmu.itb_walker.requestOrigin_Completed::total         3285                       # Table walker requests started/completed, data/inst (Count)
testsys.cpu_cluster.cpus0.mmu.itb_walker.requestOrigin::total         6589                       # Table walker requests started/completed, data/inst (Count)
testsys.cpu_cluster.cpus0.mmu.itb_walker.power_state.pwrStateResidencyTicks::UNDEFINED 4084484539750                       # Cumulative time (in ticks) in various power states (Tick)
testsys.cpu_cluster.cpus0.mmu.stage2_dtb.instHits            0                       # ITB inst hits (Count)
testsys.cpu_cluster.cpus0.mmu.stage2_dtb.instMisses            0                       # ITB inst misses (Count)
testsys.cpu_cluster.cpus0.mmu.stage2_dtb.readHits            0                       # DTB read hits (Count)
testsys.cpu_cluster.cpus0.mmu.stage2_dtb.readMisses            0                       # DTB read misses (Count)
testsys.cpu_cluster.cpus0.mmu.stage2_dtb.writeHits            0                       # DTB write hits (Count)
testsys.cpu_cluster.cpus0.mmu.stage2_dtb.writeMisses            0                       # DTB write misses (Count)
testsys.cpu_cluster.cpus0.mmu.stage2_dtb.inserts            0                       # Number of times an entry is inserted into the TLB (Count)
testsys.cpu_cluster.cpus0.mmu.stage2_dtb.flushTlb            0                       # Number of times complete TLB was flushed (Count)
testsys.cpu_cluster.cpus0.mmu.stage2_dtb.flushTlbMva            0                       # Number of times TLB was flushed by MVA (Count)
testsys.cpu_cluster.cpus0.mmu.stage2_dtb.flushTlbMvaAsid            0                       # Number of times TLB was flushed by MVA & ASID (Count)
testsys.cpu_cluster.cpus0.mmu.stage2_dtb.flushTlbAsid            0                       # Number of times TLB was flushed by ASID (Count)
testsys.cpu_cluster.cpus0.mmu.stage2_dtb.flushedEntries            0                       # Number of entries that have been flushed from TLB (Count)
testsys.cpu_cluster.cpus0.mmu.stage2_dtb.alignFaults            0                       # Number of TLB faults due to alignment restrictions (Count)
testsys.cpu_cluster.cpus0.mmu.stage2_dtb.prefetchFaults            0                       # Number of TLB faults due to prefetch (Count)
testsys.cpu_cluster.cpus0.mmu.stage2_dtb.domainFaults            0                       # Number of TLB faults due to domain restrictions (Count)
testsys.cpu_cluster.cpus0.mmu.stage2_dtb.permsFaults            0                       # Number of TLB faults due to permissions restrictions (Count)
testsys.cpu_cluster.cpus0.mmu.stage2_dtb.readAccesses            0                       # DTB read accesses (Count)
testsys.cpu_cluster.cpus0.mmu.stage2_dtb.writeAccesses            0                       # DTB write accesses (Count)
testsys.cpu_cluster.cpus0.mmu.stage2_dtb.instAccesses            0                       # ITB inst accesses (Count)
testsys.cpu_cluster.cpus0.mmu.stage2_dtb.hits            0                       # Total TLB (inst and data) hits (Count)
testsys.cpu_cluster.cpus0.mmu.stage2_dtb.misses            0                       # Total TLB (inst and data) misses (Count)
testsys.cpu_cluster.cpus0.mmu.stage2_dtb.accesses            0                       # Total TLB (inst and data) accesses (Count)
testsys.cpu_cluster.cpus0.mmu.stage2_dtb_walker.walks            0                       # Table walker walks requested (Count)
testsys.cpu_cluster.cpus0.mmu.stage2_dtb_walker.requestOrigin_Requested::Data            0                       # Table walker requests started/completed, data/inst (Count)
testsys.cpu_cluster.cpus0.mmu.stage2_dtb_walker.requestOrigin_Requested::Inst            0                       # Table walker requests started/completed, data/inst (Count)
testsys.cpu_cluster.cpus0.mmu.stage2_dtb_walker.requestOrigin_Requested::total            0                       # Table walker requests started/completed, data/inst (Count)
testsys.cpu_cluster.cpus0.mmu.stage2_dtb_walker.requestOrigin_Completed::Data            0                       # Table walker requests started/completed, data/inst (Count)
testsys.cpu_cluster.cpus0.mmu.stage2_dtb_walker.requestOrigin_Completed::Inst            0                       # Table walker requests started/completed, data/inst (Count)
testsys.cpu_cluster.cpus0.mmu.stage2_dtb_walker.requestOrigin_Completed::total            0                       # Table walker requests started/completed, data/inst (Count)
testsys.cpu_cluster.cpus0.mmu.stage2_dtb_walker.requestOrigin::total            0                       # Table walker requests started/completed, data/inst (Count)
testsys.cpu_cluster.cpus0.mmu.stage2_dtb_walker.power_state.pwrStateResidencyTicks::UNDEFINED 4084484539750                       # Cumulative time (in ticks) in various power states (Tick)
testsys.cpu_cluster.cpus0.mmu.stage2_itb.instHits            0                       # ITB inst hits (Count)
testsys.cpu_cluster.cpus0.mmu.stage2_itb.instMisses            0                       # ITB inst misses (Count)
testsys.cpu_cluster.cpus0.mmu.stage2_itb.readHits            0                       # DTB read hits (Count)
testsys.cpu_cluster.cpus0.mmu.stage2_itb.readMisses            0                       # DTB read misses (Count)
testsys.cpu_cluster.cpus0.mmu.stage2_itb.writeHits            0                       # DTB write hits (Count)
testsys.cpu_cluster.cpus0.mmu.stage2_itb.writeMisses            0                       # DTB write misses (Count)
testsys.cpu_cluster.cpus0.mmu.stage2_itb.inserts            0                       # Number of times an entry is inserted into the TLB (Count)
testsys.cpu_cluster.cpus0.mmu.stage2_itb.flushTlb            0                       # Number of times complete TLB was flushed (Count)
testsys.cpu_cluster.cpus0.mmu.stage2_itb.flushTlbMva            0                       # Number of times TLB was flushed by MVA (Count)
testsys.cpu_cluster.cpus0.mmu.stage2_itb.flushTlbMvaAsid            0                       # Number of times TLB was flushed by MVA & ASID (Count)
testsys.cpu_cluster.cpus0.mmu.stage2_itb.flushTlbAsid            0                       # Number of times TLB was flushed by ASID (Count)
testsys.cpu_cluster.cpus0.mmu.stage2_itb.flushedEntries            0                       # Number of entries that have been flushed from TLB (Count)
testsys.cpu_cluster.cpus0.mmu.stage2_itb.alignFaults            0                       # Number of TLB faults due to alignment restrictions (Count)
testsys.cpu_cluster.cpus0.mmu.stage2_itb.prefetchFaults            0                       # Number of TLB faults due to prefetch (Count)
testsys.cpu_cluster.cpus0.mmu.stage2_itb.domainFaults            0                       # Number of TLB faults due to domain restrictions (Count)
testsys.cpu_cluster.cpus0.mmu.stage2_itb.permsFaults            0                       # Number of TLB faults due to permissions restrictions (Count)
testsys.cpu_cluster.cpus0.mmu.stage2_itb.readAccesses            0                       # DTB read accesses (Count)
testsys.cpu_cluster.cpus0.mmu.stage2_itb.writeAccesses            0                       # DTB write accesses (Count)
testsys.cpu_cluster.cpus0.mmu.stage2_itb.instAccesses            0                       # ITB inst accesses (Count)
testsys.cpu_cluster.cpus0.mmu.stage2_itb.hits            0                       # Total TLB (inst and data) hits (Count)
testsys.cpu_cluster.cpus0.mmu.stage2_itb.misses            0                       # Total TLB (inst and data) misses (Count)
testsys.cpu_cluster.cpus0.mmu.stage2_itb.accesses            0                       # Total TLB (inst and data) accesses (Count)
testsys.cpu_cluster.cpus0.mmu.stage2_itb_walker.walks            0                       # Table walker walks requested (Count)
testsys.cpu_cluster.cpus0.mmu.stage2_itb_walker.requestOrigin_Requested::Data            0                       # Table walker requests started/completed, data/inst (Count)
testsys.cpu_cluster.cpus0.mmu.stage2_itb_walker.requestOrigin_Requested::Inst            0                       # Table walker requests started/completed, data/inst (Count)
testsys.cpu_cluster.cpus0.mmu.stage2_itb_walker.requestOrigin_Requested::total            0                       # Table walker requests started/completed, data/inst (Count)
testsys.cpu_cluster.cpus0.mmu.stage2_itb_walker.requestOrigin_Completed::Data            0                       # Table walker requests started/completed, data/inst (Count)
testsys.cpu_cluster.cpus0.mmu.stage2_itb_walker.requestOrigin_Completed::Inst            0                       # Table walker requests started/completed, data/inst (Count)
testsys.cpu_cluster.cpus0.mmu.stage2_itb_walker.requestOrigin_Completed::total            0                       # Table walker requests started/completed, data/inst (Count)
testsys.cpu_cluster.cpus0.mmu.stage2_itb_walker.requestOrigin::total            0                       # Table walker requests started/completed, data/inst (Count)
testsys.cpu_cluster.cpus0.mmu.stage2_itb_walker.power_state.pwrStateResidencyTicks::UNDEFINED 4084484539750                       # Cumulative time (in ticks) in various power states (Tick)
testsys.cpu_cluster.cpus0.power_state.numTransitions            7                       # Number of power state transitions (Count)
testsys.cpu_cluster.cpus0.power_state.ticksClkGated::samples            4                       # Distribution of time spent in the clock gated state (Tick)
testsys.cpu_cluster.cpus0.power_state.ticksClkGated::mean     48255248                       # Distribution of time spent in the clock gated state (Tick)
testsys.cpu_cluster.cpus0.power_state.ticksClkGated::stdev 59567580.823708                       # Distribution of time spent in the clock gated state (Tick)
testsys.cpu_cluster.cpus0.power_state.ticksClkGated::1000-5e+10            4    100.00%    100.00% # Distribution of time spent in the clock gated state (Tick)
testsys.cpu_cluster.cpus0.power_state.ticksClkGated::min_value     12945500                       # Distribution of time spent in the clock gated state (Tick)
testsys.cpu_cluster.cpus0.power_state.ticksClkGated::max_value    137359250                       # Distribution of time spent in the clock gated state (Tick)
testsys.cpu_cluster.cpus0.power_state.ticksClkGated::total            4                       # Distribution of time spent in the clock gated state (Tick)
testsys.cpu_cluster.cpus0.power_state.pwrStateResidencyTicks::ON 3785644403508                       # Cumulative time (in ticks) in various power states (Tick)
testsys.cpu_cluster.cpus0.power_state.pwrStateResidencyTicks::CLK_GATED    193020992                       # Cumulative time (in ticks) in various power states (Tick)
testsys.cpu_cluster.cpus0.thread_0.numInsts            0                       # Number of Instructions committed (Count)
testsys.cpu_cluster.cpus0.thread_0.numOps            0                       # Number of Ops committed (Count)
testsys.cpu_cluster.cpus0.thread_0.numMemRefs            0                       # Number of Memory References (Count)
testsys.cpu_cluster.cpus1.numCycles       15142987047                       # Number of cpu cycles simulated (Cycle)
testsys.cpu_cluster.cpus1.numWorkItemsStarted            0                       # Number of work items this cpu started (Count)
testsys.cpu_cluster.cpus1.numWorkItemsCompleted            0                       # Number of work items this cpu completed (Count)
testsys.cpu_cluster.cpus1.exec_context.thread_0.numInsts     26316807                       # Number of instructions committed (Count)
testsys.cpu_cluster.cpus1.exec_context.thread_0.numOps     29273183                       # Number of ops (including micro ops) committed (Count)
testsys.cpu_cluster.cpus1.exec_context.thread_0.numIntAluAccesses     26124233                       # Number of integer alu accesses (Count)
testsys.cpu_cluster.cpus1.exec_context.thread_0.numFpAluAccesses            0                       # Number of float alu accesses (Count)
testsys.cpu_cluster.cpus1.exec_context.thread_0.numVecAluAccesses          861                       # Number of vector alu accesses (Count)
testsys.cpu_cluster.cpus1.exec_context.thread_0.numCallsReturns      2093917                       # Number of times a function call or return occured (Count)
testsys.cpu_cluster.cpus1.exec_context.thread_0.numCondCtrlInsts      3293377                       # Number of instructions that are conditional controls (Count)
testsys.cpu_cluster.cpus1.exec_context.thread_0.numIntInsts     26124233                       # Number of integer instructions (Count)
testsys.cpu_cluster.cpus1.exec_context.thread_0.numFpInsts            0                       # Number of float instructions (Count)
testsys.cpu_cluster.cpus1.exec_context.thread_0.numVecInsts          861                       # Number of vector instructions (Count)
testsys.cpu_cluster.cpus1.exec_context.thread_0.numIntRegReads     36595903                       # Number of times the integer registers were read (Count)
testsys.cpu_cluster.cpus1.exec_context.thread_0.numIntRegWrites     22182495                       # Number of times the integer registers were written (Count)
testsys.cpu_cluster.cpus1.exec_context.thread_0.numFpRegReads            0                       # Number of times the floating registers were read (Count)
testsys.cpu_cluster.cpus1.exec_context.thread_0.numFpRegWrites            0                       # Number of times the floating registers were written (Count)
testsys.cpu_cluster.cpus1.exec_context.thread_0.numVecRegReads          664                       # Number of times the vector registers were read (Count)
testsys.cpu_cluster.cpus1.exec_context.thread_0.numVecRegWrites          227                       # Number of times the vector registers were written (Count)
testsys.cpu_cluster.cpus1.exec_context.thread_0.numVecPredRegReads            0                       # Number of times the predicate registers were read (Count)
testsys.cpu_cluster.cpus1.exec_context.thread_0.numVecPredRegWrites            0                       # Number of times the predicate registers were written (Count)
testsys.cpu_cluster.cpus1.exec_context.thread_0.numCCRegReads      8274820                       # Number of times the CC registers were read (Count)
testsys.cpu_cluster.cpus1.exec_context.thread_0.numCCRegWrites      8202441                       # Number of times the CC registers were written (Count)
testsys.cpu_cluster.cpus1.exec_context.thread_0.numMemRefs      5906967                       # Number of memory refs (Count)
testsys.cpu_cluster.cpus1.exec_context.thread_0.numLoadInsts      3033224                       # Number of load instructions (Count)
testsys.cpu_cluster.cpus1.exec_context.thread_0.numStoreInsts      2873743                       # Number of store instructions (Count)
testsys.cpu_cluster.cpus1.exec_context.thread_0.numIdleCycles 15113725351.293501                       # Number of idle cycles (Cycle)
testsys.cpu_cluster.cpus1.exec_context.thread_0.numBusyCycles 29261695.706498                       # Number of busy cycles (Cycle)
testsys.cpu_cluster.cpus1.exec_context.thread_0.notIdleFraction     0.001932                       # Percentage of non-idle cycles (Ratio)
testsys.cpu_cluster.cpus1.exec_context.thread_0.idleFraction     0.998068                       # Percentage of idle cycles (Ratio)
testsys.cpu_cluster.cpus1.exec_context.thread_0.numBranches      5745812                       # Number of branches fetched (Count)
testsys.cpu_cluster.cpus1.exec_context.thread_0.statExecutedInstType::No_OpClass          346      0.00%      0.00% # Class of executed instruction. (Count)
testsys.cpu_cluster.cpus1.exec_context.thread_0.statExecutedInstType::IntAlu     23338630     79.73%     79.73% # Class of executed instruction. (Count)
testsys.cpu_cluster.cpus1.exec_context.thread_0.statExecutedInstType::IntMult        26367      0.09%     79.82% # Class of executed instruction. (Count)
testsys.cpu_cluster.cpus1.exec_context.thread_0.statExecutedInstType::IntDiv          896      0.00%     79.82% # Class of executed instruction. (Count)
testsys.cpu_cluster.cpus1.exec_context.thread_0.statExecutedInstType::FloatAdd            0      0.00%     79.82% # Class of executed instruction. (Count)
testsys.cpu_cluster.cpus1.exec_context.thread_0.statExecutedInstType::FloatCmp            0      0.00%     79.82% # Class of executed instruction. (Count)
testsys.cpu_cluster.cpus1.exec_context.thread_0.statExecutedInstType::FloatCvt            0      0.00%     79.82% # Class of executed instruction. (Count)
testsys.cpu_cluster.cpus1.exec_context.thread_0.statExecutedInstType::FloatMult            0      0.00%     79.82% # Class of executed instruction. (Count)
testsys.cpu_cluster.cpus1.exec_context.thread_0.statExecutedInstType::FloatMultAcc            0      0.00%     79.82% # Class of executed instruction. (Count)
testsys.cpu_cluster.cpus1.exec_context.thread_0.statExecutedInstType::FloatDiv            0      0.00%     79.82% # Class of executed instruction. (Count)
testsys.cpu_cluster.cpus1.exec_context.thread_0.statExecutedInstType::FloatMisc           33      0.00%     79.82% # Class of executed instruction. (Count)
testsys.cpu_cluster.cpus1.exec_context.thread_0.statExecutedInstType::FloatSqrt            0      0.00%     79.82% # Class of executed instruction. (Count)
testsys.cpu_cluster.cpus1.exec_context.thread_0.statExecutedInstType::SimdAdd            5      0.00%     79.82% # Class of executed instruction. (Count)
testsys.cpu_cluster.cpus1.exec_context.thread_0.statExecutedInstType::SimdAddAcc            0      0.00%     79.82% # Class of executed instruction. (Count)
testsys.cpu_cluster.cpus1.exec_context.thread_0.statExecutedInstType::SimdAlu            4      0.00%     79.82% # Class of executed instruction. (Count)
testsys.cpu_cluster.cpus1.exec_context.thread_0.statExecutedInstType::SimdCmp            4      0.00%     79.82% # Class of executed instruction. (Count)
testsys.cpu_cluster.cpus1.exec_context.thread_0.statExecutedInstType::SimdCvt            0      0.00%     79.82% # Class of executed instruction. (Count)
testsys.cpu_cluster.cpus1.exec_context.thread_0.statExecutedInstType::SimdMisc           16      0.00%     79.82% # Class of executed instruction. (Count)
testsys.cpu_cluster.cpus1.exec_context.thread_0.statExecutedInstType::SimdMult            0      0.00%     79.82% # Class of executed instruction. (Count)
testsys.cpu_cluster.cpus1.exec_context.thread_0.statExecutedInstType::SimdMultAcc            0      0.00%     79.82% # Class of executed instruction. (Count)
testsys.cpu_cluster.cpus1.exec_context.thread_0.statExecutedInstType::SimdShift            0      0.00%     79.82% # Class of executed instruction. (Count)
testsys.cpu_cluster.cpus1.exec_context.thread_0.statExecutedInstType::SimdShiftAcc            0      0.00%     79.82% # Class of executed instruction. (Count)
testsys.cpu_cluster.cpus1.exec_context.thread_0.statExecutedInstType::SimdDiv            0      0.00%     79.82% # Class of executed instruction. (Count)
testsys.cpu_cluster.cpus1.exec_context.thread_0.statExecutedInstType::SimdSqrt            0      0.00%     79.82% # Class of executed instruction. (Count)
testsys.cpu_cluster.cpus1.exec_context.thread_0.statExecutedInstType::SimdFloatAdd            0      0.00%     79.82% # Class of executed instruction. (Count)
testsys.cpu_cluster.cpus1.exec_context.thread_0.statExecutedInstType::SimdFloatAlu            0      0.00%     79.82% # Class of executed instruction. (Count)
testsys.cpu_cluster.cpus1.exec_context.thread_0.statExecutedInstType::SimdFloatCmp            0      0.00%     79.82% # Class of executed instruction. (Count)
testsys.cpu_cluster.cpus1.exec_context.thread_0.statExecutedInstType::SimdFloatCvt            0      0.00%     79.82% # Class of executed instruction. (Count)
testsys.cpu_cluster.cpus1.exec_context.thread_0.statExecutedInstType::SimdFloatDiv            0      0.00%     79.82% # Class of executed instruction. (Count)
testsys.cpu_cluster.cpus1.exec_context.thread_0.statExecutedInstType::SimdFloatMisc            0      0.00%     79.82% # Class of executed instruction. (Count)
testsys.cpu_cluster.cpus1.exec_context.thread_0.statExecutedInstType::SimdFloatMult            0      0.00%     79.82% # Class of executed instruction. (Count)
testsys.cpu_cluster.cpus1.exec_context.thread_0.statExecutedInstType::SimdFloatMultAcc            0      0.00%     79.82% # Class of executed instruction. (Count)
testsys.cpu_cluster.cpus1.exec_context.thread_0.statExecutedInstType::SimdFloatSqrt            0      0.00%     79.82% # Class of executed instruction. (Count)
testsys.cpu_cluster.cpus1.exec_context.thread_0.statExecutedInstType::SimdReduceAdd            0      0.00%     79.82% # Class of executed instruction. (Count)
testsys.cpu_cluster.cpus1.exec_context.thread_0.statExecutedInstType::SimdReduceAlu            0      0.00%     79.82% # Class of executed instruction. (Count)
testsys.cpu_cluster.cpus1.exec_context.thread_0.statExecutedInstType::SimdReduceCmp            0      0.00%     79.82% # Class of executed instruction. (Count)
testsys.cpu_cluster.cpus1.exec_context.thread_0.statExecutedInstType::SimdFloatReduceAdd            0      0.00%     79.82% # Class of executed instruction. (Count)
testsys.cpu_cluster.cpus1.exec_context.thread_0.statExecutedInstType::SimdFloatReduceCmp            0      0.00%     79.82% # Class of executed instruction. (Count)
testsys.cpu_cluster.cpus1.exec_context.thread_0.statExecutedInstType::SimdAes            0      0.00%     79.82% # Class of executed instruction. (Count)
testsys.cpu_cluster.cpus1.exec_context.thread_0.statExecutedInstType::SimdAesMix            0      0.00%     79.82% # Class of executed instruction. (Count)
testsys.cpu_cluster.cpus1.exec_context.thread_0.statExecutedInstType::SimdSha1Hash            0      0.00%     79.82% # Class of executed instruction. (Count)
testsys.cpu_cluster.cpus1.exec_context.thread_0.statExecutedInstType::SimdSha1Hash2            0      0.00%     79.82% # Class of executed instruction. (Count)
testsys.cpu_cluster.cpus1.exec_context.thread_0.statExecutedInstType::SimdSha256Hash            0      0.00%     79.82% # Class of executed instruction. (Count)
testsys.cpu_cluster.cpus1.exec_context.thread_0.statExecutedInstType::SimdSha256Hash2            0      0.00%     79.82% # Class of executed instruction. (Count)
testsys.cpu_cluster.cpus1.exec_context.thread_0.statExecutedInstType::SimdShaSigma2            0      0.00%     79.82% # Class of executed instruction. (Count)
testsys.cpu_cluster.cpus1.exec_context.thread_0.statExecutedInstType::SimdShaSigma3            0      0.00%     79.82% # Class of executed instruction. (Count)
testsys.cpu_cluster.cpus1.exec_context.thread_0.statExecutedInstType::SimdPredAlu            0      0.00%     79.82% # Class of executed instruction. (Count)
testsys.cpu_cluster.cpus1.exec_context.thread_0.statExecutedInstType::MemRead      3033224     10.36%     90.18% # Class of executed instruction. (Count)
testsys.cpu_cluster.cpus1.exec_context.thread_0.statExecutedInstType::MemWrite      2873743      9.82%    100.00% # Class of executed instruction. (Count)
testsys.cpu_cluster.cpus1.exec_context.thread_0.statExecutedInstType::FloatMemRead            0      0.00%    100.00% # Class of executed instruction. (Count)
testsys.cpu_cluster.cpus1.exec_context.thread_0.statExecutedInstType::FloatMemWrite            0      0.00%    100.00% # Class of executed instruction. (Count)
testsys.cpu_cluster.cpus1.exec_context.thread_0.statExecutedInstType::IprAccess            0      0.00%    100.00% # Class of executed instruction. (Count)
testsys.cpu_cluster.cpus1.exec_context.thread_0.statExecutedInstType::InstPrefetch            0      0.00%    100.00% # Class of executed instruction. (Count)
testsys.cpu_cluster.cpus1.exec_context.thread_0.statExecutedInstType::total     29273268                       # Class of executed instruction. (Count)
testsys.cpu_cluster.cpus1.mmu.dtb.instHits            0                       # ITB inst hits (Count)
testsys.cpu_cluster.cpus1.mmu.dtb.instMisses            0                       # ITB inst misses (Count)
testsys.cpu_cluster.cpus1.mmu.dtb.readHits      3031973                       # DTB read hits (Count)
testsys.cpu_cluster.cpus1.mmu.dtb.readMisses         1478                       # DTB read misses (Count)
testsys.cpu_cluster.cpus1.mmu.dtb.writeHits      2873487                       # DTB write hits (Count)
testsys.cpu_cluster.cpus1.mmu.dtb.writeMisses          307                       # DTB write misses (Count)
testsys.cpu_cluster.cpus1.mmu.dtb.inserts         1734                       # Number of times an entry is inserted into the TLB (Count)
testsys.cpu_cluster.cpus1.mmu.dtb.flushTlb            0                       # Number of times complete TLB was flushed (Count)
testsys.cpu_cluster.cpus1.mmu.dtb.flushTlbMva            0                       # Number of times TLB was flushed by MVA (Count)
testsys.cpu_cluster.cpus1.mmu.dtb.flushTlbMvaAsid           78                       # Number of times TLB was flushed by MVA & ASID (Count)
testsys.cpu_cluster.cpus1.mmu.dtb.flushTlbAsid            6                       # Number of times TLB was flushed by ASID (Count)
testsys.cpu_cluster.cpus1.mmu.dtb.flushedEntries          190                       # Number of entries that have been flushed from TLB (Count)
testsys.cpu_cluster.cpus1.mmu.dtb.alignFaults            0                       # Number of TLB faults due to alignment restrictions (Count)
testsys.cpu_cluster.cpus1.mmu.dtb.prefetchFaults           17                       # Number of TLB faults due to prefetch (Count)
testsys.cpu_cluster.cpus1.mmu.dtb.domainFaults            0                       # Number of TLB faults due to domain restrictions (Count)
testsys.cpu_cluster.cpus1.mmu.dtb.permsFaults           28                       # Number of TLB faults due to permissions restrictions (Count)
testsys.cpu_cluster.cpus1.mmu.dtb.readAccesses      3033451                       # DTB read accesses (Count)
testsys.cpu_cluster.cpus1.mmu.dtb.writeAccesses      2873794                       # DTB write accesses (Count)
testsys.cpu_cluster.cpus1.mmu.dtb.instAccesses            0                       # ITB inst accesses (Count)
testsys.cpu_cluster.cpus1.mmu.dtb.hits        5905460                       # Total TLB (inst and data) hits (Count)
testsys.cpu_cluster.cpus1.mmu.dtb.misses         1785                       # Total TLB (inst and data) misses (Count)
testsys.cpu_cluster.cpus1.mmu.dtb.accesses      5907245                       # Total TLB (inst and data) accesses (Count)
testsys.cpu_cluster.cpus1.mmu.dtb_walker.walks         1768                       # Table walker walks requested (Count)
testsys.cpu_cluster.cpus1.mmu.dtb_walker.walksLongDescriptor         1768                       # Table walker walks initiated with long descriptors (Count)
testsys.cpu_cluster.cpus1.mmu.dtb_walker.walkWaitTime::samples         1768                       # Table walker wait (enqueue to first request) latency (Tick)
testsys.cpu_cluster.cpus1.mmu.dtb_walker.walkWaitTime::0         1768    100.00%    100.00% # Table walker wait (enqueue to first request) latency (Tick)
testsys.cpu_cluster.cpus1.mmu.dtb_walker.walkWaitTime::total         1768                       # Table walker wait (enqueue to first request) latency (Tick)
testsys.cpu_cluster.cpus1.mmu.dtb_walker.pageSizes::4KiB         1698     97.92%     97.92% # Table walker page sizes translated (Count)
testsys.cpu_cluster.cpus1.mmu.dtb_walker.pageSizes::2MiB           36      2.08%    100.00% # Table walker page sizes translated (Count)
testsys.cpu_cluster.cpus1.mmu.dtb_walker.pageSizes::total         1734                       # Table walker page sizes translated (Count)
testsys.cpu_cluster.cpus1.mmu.dtb_walker.requestOrigin_Requested::Data         1768                       # Table walker requests started/completed, data/inst (Count)
testsys.cpu_cluster.cpus1.mmu.dtb_walker.requestOrigin_Requested::Inst            0                       # Table walker requests started/completed, data/inst (Count)
testsys.cpu_cluster.cpus1.mmu.dtb_walker.requestOrigin_Requested::total         1768                       # Table walker requests started/completed, data/inst (Count)
testsys.cpu_cluster.cpus1.mmu.dtb_walker.requestOrigin_Completed::Data         1734                       # Table walker requests started/completed, data/inst (Count)
testsys.cpu_cluster.cpus1.mmu.dtb_walker.requestOrigin_Completed::Inst            0                       # Table walker requests started/completed, data/inst (Count)
testsys.cpu_cluster.cpus1.mmu.dtb_walker.requestOrigin_Completed::total         1734                       # Table walker requests started/completed, data/inst (Count)
testsys.cpu_cluster.cpus1.mmu.dtb_walker.requestOrigin::total         3502                       # Table walker requests started/completed, data/inst (Count)
testsys.cpu_cluster.cpus1.mmu.dtb_walker.power_state.pwrStateResidencyTicks::UNDEFINED 4084484539750                       # Cumulative time (in ticks) in various power states (Tick)
testsys.cpu_cluster.cpus1.mmu.itb.instHits     26315887                       # ITB inst hits (Count)
testsys.cpu_cluster.cpus1.mmu.itb.instMisses         1030                       # ITB inst misses (Count)
testsys.cpu_cluster.cpus1.mmu.itb.readHits            0                       # DTB read hits (Count)
testsys.cpu_cluster.cpus1.mmu.itb.readMisses            0                       # DTB read misses (Count)
testsys.cpu_cluster.cpus1.mmu.itb.writeHits            0                       # DTB write hits (Count)
testsys.cpu_cluster.cpus1.mmu.itb.writeMisses            0                       # DTB write misses (Count)
testsys.cpu_cluster.cpus1.mmu.itb.inserts         1005                       # Number of times an entry is inserted into the TLB (Count)
testsys.cpu_cluster.cpus1.mmu.itb.flushTlb            0                       # Number of times complete TLB was flushed (Count)
testsys.cpu_cluster.cpus1.mmu.itb.flushTlbMva            0                       # Number of times TLB was flushed by MVA (Count)
testsys.cpu_cluster.cpus1.mmu.itb.flushTlbMvaAsid           78                       # Number of times TLB was flushed by MVA & ASID (Count)
testsys.cpu_cluster.cpus1.mmu.itb.flushTlbAsid            6                       # Number of times TLB was flushed by ASID (Count)
testsys.cpu_cluster.cpus1.mmu.itb.flushedEntries          169                       # Number of entries that have been flushed from TLB (Count)
testsys.cpu_cluster.cpus1.mmu.itb.alignFaults            0                       # Number of TLB faults due to alignment restrictions (Count)
testsys.cpu_cluster.cpus1.mmu.itb.prefetchFaults            0                       # Number of TLB faults due to prefetch (Count)
testsys.cpu_cluster.cpus1.mmu.itb.domainFaults            0                       # Number of TLB faults due to domain restrictions (Count)
testsys.cpu_cluster.cpus1.mmu.itb.permsFaults            0                       # Number of TLB faults due to permissions restrictions (Count)
testsys.cpu_cluster.cpus1.mmu.itb.readAccesses            0                       # DTB read accesses (Count)
testsys.cpu_cluster.cpus1.mmu.itb.writeAccesses            0                       # DTB write accesses (Count)
testsys.cpu_cluster.cpus1.mmu.itb.instAccesses     26316917                       # ITB inst accesses (Count)
testsys.cpu_cluster.cpus1.mmu.itb.hits       26315887                       # Total TLB (inst and data) hits (Count)
testsys.cpu_cluster.cpus1.mmu.itb.misses         1030                       # Total TLB (inst and data) misses (Count)
testsys.cpu_cluster.cpus1.mmu.itb.accesses     26316917                       # Total TLB (inst and data) accesses (Count)
testsys.cpu_cluster.cpus1.mmu.itb_walker.walks         1030                       # Table walker walks requested (Count)
testsys.cpu_cluster.cpus1.mmu.itb_walker.walksLongDescriptor         1030                       # Table walker walks initiated with long descriptors (Count)
testsys.cpu_cluster.cpus1.mmu.itb_walker.walkWaitTime::samples         1030                       # Table walker wait (enqueue to first request) latency (Tick)
testsys.cpu_cluster.cpus1.mmu.itb_walker.walkWaitTime::0         1030    100.00%    100.00% # Table walker wait (enqueue to first request) latency (Tick)
testsys.cpu_cluster.cpus1.mmu.itb_walker.walkWaitTime::total         1030                       # Table walker wait (enqueue to first request) latency (Tick)
testsys.cpu_cluster.cpus1.mmu.itb_walker.pageSizes::4KiB          978     97.31%     97.31% # Table walker page sizes translated (Count)
testsys.cpu_cluster.cpus1.mmu.itb_walker.pageSizes::2MiB           27      2.69%    100.00% # Table walker page sizes translated (Count)
testsys.cpu_cluster.cpus1.mmu.itb_walker.pageSizes::total         1005                       # Table walker page sizes translated (Count)
testsys.cpu_cluster.cpus1.mmu.itb_walker.requestOrigin_Requested::Data            0                       # Table walker requests started/completed, data/inst (Count)
testsys.cpu_cluster.cpus1.mmu.itb_walker.requestOrigin_Requested::Inst         1030                       # Table walker requests started/completed, data/inst (Count)
testsys.cpu_cluster.cpus1.mmu.itb_walker.requestOrigin_Requested::total         1030                       # Table walker requests started/completed, data/inst (Count)
testsys.cpu_cluster.cpus1.mmu.itb_walker.requestOrigin_Completed::Data            0                       # Table walker requests started/completed, data/inst (Count)
testsys.cpu_cluster.cpus1.mmu.itb_walker.requestOrigin_Completed::Inst         1005                       # Table walker requests started/completed, data/inst (Count)
testsys.cpu_cluster.cpus1.mmu.itb_walker.requestOrigin_Completed::total         1005                       # Table walker requests started/completed, data/inst (Count)
testsys.cpu_cluster.cpus1.mmu.itb_walker.requestOrigin::total         2035                       # Table walker requests started/completed, data/inst (Count)
testsys.cpu_cluster.cpus1.mmu.itb_walker.power_state.pwrStateResidencyTicks::UNDEFINED 4084484539750                       # Cumulative time (in ticks) in various power states (Tick)
testsys.cpu_cluster.cpus1.mmu.stage2_dtb.instHits            0                       # ITB inst hits (Count)
testsys.cpu_cluster.cpus1.mmu.stage2_dtb.instMisses            0                       # ITB inst misses (Count)
testsys.cpu_cluster.cpus1.mmu.stage2_dtb.readHits            0                       # DTB read hits (Count)
testsys.cpu_cluster.cpus1.mmu.stage2_dtb.readMisses            0                       # DTB read misses (Count)
testsys.cpu_cluster.cpus1.mmu.stage2_dtb.writeHits            0                       # DTB write hits (Count)
testsys.cpu_cluster.cpus1.mmu.stage2_dtb.writeMisses            0                       # DTB write misses (Count)
testsys.cpu_cluster.cpus1.mmu.stage2_dtb.inserts            0                       # Number of times an entry is inserted into the TLB (Count)
testsys.cpu_cluster.cpus1.mmu.stage2_dtb.flushTlb            0                       # Number of times complete TLB was flushed (Count)
testsys.cpu_cluster.cpus1.mmu.stage2_dtb.flushTlbMva            0                       # Number of times TLB was flushed by MVA (Count)
testsys.cpu_cluster.cpus1.mmu.stage2_dtb.flushTlbMvaAsid            0                       # Number of times TLB was flushed by MVA & ASID (Count)
testsys.cpu_cluster.cpus1.mmu.stage2_dtb.flushTlbAsid            0                       # Number of times TLB was flushed by ASID (Count)
testsys.cpu_cluster.cpus1.mmu.stage2_dtb.flushedEntries            0                       # Number of entries that have been flushed from TLB (Count)
testsys.cpu_cluster.cpus1.mmu.stage2_dtb.alignFaults            0                       # Number of TLB faults due to alignment restrictions (Count)
testsys.cpu_cluster.cpus1.mmu.stage2_dtb.prefetchFaults            0                       # Number of TLB faults due to prefetch (Count)
testsys.cpu_cluster.cpus1.mmu.stage2_dtb.domainFaults            0                       # Number of TLB faults due to domain restrictions (Count)
testsys.cpu_cluster.cpus1.mmu.stage2_dtb.permsFaults            0                       # Number of TLB faults due to permissions restrictions (Count)
testsys.cpu_cluster.cpus1.mmu.stage2_dtb.readAccesses            0                       # DTB read accesses (Count)
testsys.cpu_cluster.cpus1.mmu.stage2_dtb.writeAccesses            0                       # DTB write accesses (Count)
testsys.cpu_cluster.cpus1.mmu.stage2_dtb.instAccesses            0                       # ITB inst accesses (Count)
testsys.cpu_cluster.cpus1.mmu.stage2_dtb.hits            0                       # Total TLB (inst and data) hits (Count)
testsys.cpu_cluster.cpus1.mmu.stage2_dtb.misses            0                       # Total TLB (inst and data) misses (Count)
testsys.cpu_cluster.cpus1.mmu.stage2_dtb.accesses            0                       # Total TLB (inst and data) accesses (Count)
testsys.cpu_cluster.cpus1.mmu.stage2_dtb_walker.walks            0                       # Table walker walks requested (Count)
testsys.cpu_cluster.cpus1.mmu.stage2_dtb_walker.requestOrigin_Requested::Data            0                       # Table walker requests started/completed, data/inst (Count)
testsys.cpu_cluster.cpus1.mmu.stage2_dtb_walker.requestOrigin_Requested::Inst            0                       # Table walker requests started/completed, data/inst (Count)
testsys.cpu_cluster.cpus1.mmu.stage2_dtb_walker.requestOrigin_Requested::total            0                       # Table walker requests started/completed, data/inst (Count)
testsys.cpu_cluster.cpus1.mmu.stage2_dtb_walker.requestOrigin_Completed::Data            0                       # Table walker requests started/completed, data/inst (Count)
testsys.cpu_cluster.cpus1.mmu.stage2_dtb_walker.requestOrigin_Completed::Inst            0                       # Table walker requests started/completed, data/inst (Count)
testsys.cpu_cluster.cpus1.mmu.stage2_dtb_walker.requestOrigin_Completed::total            0                       # Table walker requests started/completed, data/inst (Count)
testsys.cpu_cluster.cpus1.mmu.stage2_dtb_walker.requestOrigin::total            0                       # Table walker requests started/completed, data/inst (Count)
testsys.cpu_cluster.cpus1.mmu.stage2_dtb_walker.power_state.pwrStateResidencyTicks::UNDEFINED 4084484539750                       # Cumulative time (in ticks) in various power states (Tick)
testsys.cpu_cluster.cpus1.mmu.stage2_itb.instHits            0                       # ITB inst hits (Count)
testsys.cpu_cluster.cpus1.mmu.stage2_itb.instMisses            0                       # ITB inst misses (Count)
testsys.cpu_cluster.cpus1.mmu.stage2_itb.readHits            0                       # DTB read hits (Count)
testsys.cpu_cluster.cpus1.mmu.stage2_itb.readMisses            0                       # DTB read misses (Count)
testsys.cpu_cluster.cpus1.mmu.stage2_itb.writeHits            0                       # DTB write hits (Count)
testsys.cpu_cluster.cpus1.mmu.stage2_itb.writeMisses            0                       # DTB write misses (Count)
testsys.cpu_cluster.cpus1.mmu.stage2_itb.inserts            0                       # Number of times an entry is inserted into the TLB (Count)
testsys.cpu_cluster.cpus1.mmu.stage2_itb.flushTlb            0                       # Number of times complete TLB was flushed (Count)
testsys.cpu_cluster.cpus1.mmu.stage2_itb.flushTlbMva            0                       # Number of times TLB was flushed by MVA (Count)
testsys.cpu_cluster.cpus1.mmu.stage2_itb.flushTlbMvaAsid            0                       # Number of times TLB was flushed by MVA & ASID (Count)
testsys.cpu_cluster.cpus1.mmu.stage2_itb.flushTlbAsid            0                       # Number of times TLB was flushed by ASID (Count)
testsys.cpu_cluster.cpus1.mmu.stage2_itb.flushedEntries            0                       # Number of entries that have been flushed from TLB (Count)
testsys.cpu_cluster.cpus1.mmu.stage2_itb.alignFaults            0                       # Number of TLB faults due to alignment restrictions (Count)
testsys.cpu_cluster.cpus1.mmu.stage2_itb.prefetchFaults            0                       # Number of TLB faults due to prefetch (Count)
testsys.cpu_cluster.cpus1.mmu.stage2_itb.domainFaults            0                       # Number of TLB faults due to domain restrictions (Count)
testsys.cpu_cluster.cpus1.mmu.stage2_itb.permsFaults            0                       # Number of TLB faults due to permissions restrictions (Count)
testsys.cpu_cluster.cpus1.mmu.stage2_itb.readAccesses            0                       # DTB read accesses (Count)
testsys.cpu_cluster.cpus1.mmu.stage2_itb.writeAccesses            0                       # DTB write accesses (Count)
testsys.cpu_cluster.cpus1.mmu.stage2_itb.instAccesses            0                       # ITB inst accesses (Count)
testsys.cpu_cluster.cpus1.mmu.stage2_itb.hits            0                       # Total TLB (inst and data) hits (Count)
testsys.cpu_cluster.cpus1.mmu.stage2_itb.misses            0                       # Total TLB (inst and data) misses (Count)
testsys.cpu_cluster.cpus1.mmu.stage2_itb.accesses            0                       # Total TLB (inst and data) accesses (Count)
testsys.cpu_cluster.cpus1.mmu.stage2_itb_walker.walks            0                       # Table walker walks requested (Count)
testsys.cpu_cluster.cpus1.mmu.stage2_itb_walker.requestOrigin_Requested::Data            0                       # Table walker requests started/completed, data/inst (Count)
testsys.cpu_cluster.cpus1.mmu.stage2_itb_walker.requestOrigin_Requested::Inst            0                       # Table walker requests started/completed, data/inst (Count)
testsys.cpu_cluster.cpus1.mmu.stage2_itb_walker.requestOrigin_Requested::total            0                       # Table walker requests started/completed, data/inst (Count)
testsys.cpu_cluster.cpus1.mmu.stage2_itb_walker.requestOrigin_Completed::Data            0                       # Table walker requests started/completed, data/inst (Count)
testsys.cpu_cluster.cpus1.mmu.stage2_itb_walker.requestOrigin_Completed::Inst            0                       # Table walker requests started/completed, data/inst (Count)
testsys.cpu_cluster.cpus1.mmu.stage2_itb_walker.requestOrigin_Completed::total            0                       # Table walker requests started/completed, data/inst (Count)
testsys.cpu_cluster.cpus1.mmu.stage2_itb_walker.requestOrigin::total            0                       # Table walker requests started/completed, data/inst (Count)
testsys.cpu_cluster.cpus1.mmu.stage2_itb_walker.power_state.pwrStateResidencyTicks::UNDEFINED 4084484539750                       # Cumulative time (in ticks) in various power states (Tick)
testsys.cpu_cluster.cpus1.power_state.numTransitions        46581                       # Number of power state transitions (Count)
testsys.cpu_cluster.cpus1.power_state.ticksClkGated::samples        23291                       # Distribution of time spent in the clock gated state (Tick)
testsys.cpu_cluster.cpus1.power_state.ticksClkGated::mean 162226849.579322                       # Distribution of time spent in the clock gated state (Tick)
testsys.cpu_cluster.cpus1.power_state.ticksClkGated::stdev 5014874.654551                       # Distribution of time spent in the clock gated state (Tick)
testsys.cpu_cluster.cpus1.power_state.ticksClkGated::1000-5e+10        23291    100.00%    100.00% # Distribution of time spent in the clock gated state (Tick)
testsys.cpu_cluster.cpus1.power_state.ticksClkGated::min_value       274250                       # Distribution of time spent in the clock gated state (Tick)
testsys.cpu_cluster.cpus1.power_state.ticksClkGated::max_value    162671156                       # Distribution of time spent in the clock gated state (Tick)
testsys.cpu_cluster.cpus1.power_state.ticksClkGated::total        23291                       # Distribution of time spent in the clock gated state (Tick)
testsys.cpu_cluster.cpus1.power_state.pwrStateResidencyTicks::ON   7315385448                       # Cumulative time (in ticks) in various power states (Tick)
testsys.cpu_cluster.cpus1.power_state.pwrStateResidencyTicks::CLK_GATED 3778425553552                       # Cumulative time (in ticks) in various power states (Tick)
testsys.cpu_cluster.cpus1.thread_0.numInsts            0                       # Number of Instructions committed (Count)
testsys.cpu_cluster.cpus1.thread_0.numOps            0                       # Number of Ops committed (Count)
testsys.cpu_cluster.cpus1.thread_0.numMemRefs            0                       # Number of Memory References (Count)
testsys.cpu_cluster.voltage_domain.voltage            1                       # Voltage in Volts (Volt)
testsys.dmabridge.power_state.pwrStateResidencyTicks::UNDEFINED 4084484539750                       # Cumulative time (in ticks) in various power states (Tick)
testsys.iobridge.power_state.pwrStateResidencyTicks::UNDEFINED 4084484539750                       # Cumulative time (in ticks) in various power states (Tick)
testsys.iobus.transDist::ReadReq                 1489                       # Transaction distribution (Count)
testsys.iobus.transDist::ReadResp                1489                       # Transaction distribution (Count)
testsys.iobus.transDist::WriteReq                1653                       # Transaction distribution (Count)
testsys.iobus.transDist::WriteResp               1653                       # Transaction distribution (Count)
testsys.iobus.pktCount_testsys.iobridge.mem_side_port::testsys.pci_devices0.pio          108                       # Packet count per connected requestor and responder (Count)
testsys.iobus.pktCount_testsys.iobridge.mem_side_port::testsys.realview.uart0.pio         6176                       # Packet count per connected requestor and responder (Count)
testsys.iobus.pktCount_testsys.iobridge.mem_side_port::total         6284                       # Packet count per connected requestor and responder (Count)
testsys.iobus.pktCount::total                    6284                       # Packet count per connected requestor and responder (Count)
testsys.iobus.pktSize_testsys.iobridge.mem_side_port::testsys.pci_devices0.pio           81                       # Cumulative packet size per connected requestor and responder (Byte)
testsys.iobus.pktSize_testsys.iobridge.mem_side_port::testsys.realview.uart0.pio         6176                       # Cumulative packet size per connected requestor and responder (Byte)
testsys.iobus.pktSize_testsys.iobridge.mem_side_port::total         6257                       # Cumulative packet size per connected requestor and responder (Byte)
testsys.iobus.pktSize::total                     6257                       # Cumulative packet size per connected requestor and responder (Byte)
testsys.iobus.power_state.pwrStateResidencyTicks::UNDEFINED 4084484539750                       # Cumulative time (in ticks) in various power states (Tick)
testsys.mem_ctrls.priorityMinLatency     0.000000000000                       # per QoS priority minimum request to response latency (Second)
testsys.mem_ctrls.priorityMaxLatency     0.000000000000                       # per QoS priority maximum request to response latency (Second)
testsys.mem_ctrls.numReadWriteTurnArounds            0                       # Number of turnarounds from READ to WRITE (Count)
testsys.mem_ctrls.numWriteReadTurnArounds            0                       # Number of turnarounds from WRITE to READ (Count)
testsys.mem_ctrls.numStayReadState                  0                       # Number of times bus staying in READ state (Count)
testsys.mem_ctrls.numStayWriteState                 0                       # Number of times bus staying in WRITE state (Count)
testsys.mem_ctrls.readReqs                          0                       # Number of read requests accepted (Count)
testsys.mem_ctrls.writeReqs                         0                       # Number of write requests accepted (Count)
testsys.mem_ctrls.readBursts                        0                       # Number of controller read bursts, including those serviced by the write queue (Count)
testsys.mem_ctrls.writeBursts                       0                       # Number of controller write bursts, including those merged in the write queue (Count)
testsys.mem_ctrls.servicedByWrQ                     0                       # Number of controller read bursts serviced by the write queue (Count)
testsys.mem_ctrls.mergedWrBursts                    0                       # Number of controller write bursts merged with an existing one (Count)
testsys.mem_ctrls.neitherReadNorWriteReqs            0                       # Number of requests that are neither read nor write (Count)
testsys.mem_ctrls.avgRdQLen                      0.00                       # Average read queue length when enqueuing ((Count/Tick))
testsys.mem_ctrls.avgWrQLen                      0.00                       # Average write queue length when enqueuing ((Count/Tick))
testsys.mem_ctrls.numRdRetry                        0                       # Number of times read queue was full causing retry (Count)
testsys.mem_ctrls.numWrRetry                        0                       # Number of times write queue was full causing retry (Count)
testsys.mem_ctrls.readPktSize::0                    0                       # Read request sizes (log2) (Count)
testsys.mem_ctrls.readPktSize::1                    0                       # Read request sizes (log2) (Count)
testsys.mem_ctrls.readPktSize::2                    0                       # Read request sizes (log2) (Count)
testsys.mem_ctrls.readPktSize::3                    0                       # Read request sizes (log2) (Count)
testsys.mem_ctrls.readPktSize::4                    0                       # Read request sizes (log2) (Count)
testsys.mem_ctrls.readPktSize::5                    0                       # Read request sizes (log2) (Count)
testsys.mem_ctrls.readPktSize::6                    0                       # Read request sizes (log2) (Count)
testsys.mem_ctrls.writePktSize::0                   0                       # Write request sizes (log2) (Count)
testsys.mem_ctrls.writePktSize::1                   0                       # Write request sizes (log2) (Count)
testsys.mem_ctrls.writePktSize::2                   0                       # Write request sizes (log2) (Count)
testsys.mem_ctrls.writePktSize::3                   0                       # Write request sizes (log2) (Count)
testsys.mem_ctrls.writePktSize::4                   0                       # Write request sizes (log2) (Count)
testsys.mem_ctrls.writePktSize::5                   0                       # Write request sizes (log2) (Count)
testsys.mem_ctrls.writePktSize::6                   0                       # Write request sizes (log2) (Count)
testsys.mem_ctrls.rdQLenPdf::0                      0                       # What read queue length does an incoming req see (Count)
testsys.mem_ctrls.rdQLenPdf::1                      0                       # What read queue length does an incoming req see (Count)
testsys.mem_ctrls.rdQLenPdf::2                      0                       # What read queue length does an incoming req see (Count)
testsys.mem_ctrls.rdQLenPdf::3                      0                       # What read queue length does an incoming req see (Count)
testsys.mem_ctrls.rdQLenPdf::4                      0                       # What read queue length does an incoming req see (Count)
testsys.mem_ctrls.rdQLenPdf::5                      0                       # What read queue length does an incoming req see (Count)
testsys.mem_ctrls.rdQLenPdf::6                      0                       # What read queue length does an incoming req see (Count)
testsys.mem_ctrls.rdQLenPdf::7                      0                       # What read queue length does an incoming req see (Count)
testsys.mem_ctrls.rdQLenPdf::8                      0                       # What read queue length does an incoming req see (Count)
testsys.mem_ctrls.rdQLenPdf::9                      0                       # What read queue length does an incoming req see (Count)
testsys.mem_ctrls.rdQLenPdf::10                     0                       # What read queue length does an incoming req see (Count)
testsys.mem_ctrls.rdQLenPdf::11                     0                       # What read queue length does an incoming req see (Count)
testsys.mem_ctrls.rdQLenPdf::12                     0                       # What read queue length does an incoming req see (Count)
testsys.mem_ctrls.rdQLenPdf::13                     0                       # What read queue length does an incoming req see (Count)
testsys.mem_ctrls.rdQLenPdf::14                     0                       # What read queue length does an incoming req see (Count)
testsys.mem_ctrls.rdQLenPdf::15                     0                       # What read queue length does an incoming req see (Count)
testsys.mem_ctrls.rdQLenPdf::16                     0                       # What read queue length does an incoming req see (Count)
testsys.mem_ctrls.rdQLenPdf::17                     0                       # What read queue length does an incoming req see (Count)
testsys.mem_ctrls.rdQLenPdf::18                     0                       # What read queue length does an incoming req see (Count)
testsys.mem_ctrls.rdQLenPdf::19                     0                       # What read queue length does an incoming req see (Count)
testsys.mem_ctrls.rdQLenPdf::20                     0                       # What read queue length does an incoming req see (Count)
testsys.mem_ctrls.rdQLenPdf::21                     0                       # What read queue length does an incoming req see (Count)
testsys.mem_ctrls.rdQLenPdf::22                     0                       # What read queue length does an incoming req see (Count)
testsys.mem_ctrls.rdQLenPdf::23                     0                       # What read queue length does an incoming req see (Count)
testsys.mem_ctrls.rdQLenPdf::24                     0                       # What read queue length does an incoming req see (Count)
testsys.mem_ctrls.rdQLenPdf::25                     0                       # What read queue length does an incoming req see (Count)
testsys.mem_ctrls.rdQLenPdf::26                     0                       # What read queue length does an incoming req see (Count)
testsys.mem_ctrls.rdQLenPdf::27                     0                       # What read queue length does an incoming req see (Count)
testsys.mem_ctrls.rdQLenPdf::28                     0                       # What read queue length does an incoming req see (Count)
[...]
testsys.pci_devices1.power_state.pwrStateResidencyTicks::UNDEFINED 4084712000250                       # Cumulative time (in ticks) in various power states (Tick)
testsys.pci_devices2.EtherDevice.postedInterrupts            0                       # Number of posts to CPU (Count)
testsys.pci_devices2.EtherDevice.descDmaReads            0                       # Number of descriptors the device read w/ DMA (Count)
testsys.pci_devices2.EtherDevice.descDmaWrites            0                       # Number of descriptors the device wrote w/ DMA (Count)
testsys.pci_devices2.EtherDevice.descDmaRdBytes            0                       # Number of descriptor bytes read w/ DMA (Count)
testsys.pci_devices2.EtherDevice.descDmaWrBytes            0                       # Number of descriptor bytes write w/ DMA (Count)
testsys.pci_devices2.EtherDevice.postedSwi            0                       # Number of software interrupts posted to CPU (Count)
testsys.pci_devices2.EtherDevice.totalSwi            0                       # Total number of Swi written to ISR (Count)
testsys.pci_devices2.EtherDevice.coalescedSwi          nan                       # Average number of Swi's coalesced into each post ((Count/Count))
testsys.pci_devices2.EtherDevice.postedRxIdle            0                       # Number of rxIdle interrupts posted to CPU (Count)
testsys.pci_devices2.EtherDevice.totalRxIdle            0                       # Total number of RxIdle written to ISR (Count)
testsys.pci_devices2.EtherDevice.coalescedRxIdle          nan                       # Average number of RxIdle's coalesced into each post ((Count/Count))
testsys.pci_devices2.EtherDevice.postedRxOk            0                       # Number of RxOk interrupts posted to CPU (Count)
testsys.pci_devices2.EtherDevice.totalRxOk            0                       # Total number of RxOk written to ISR (Count)
testsys.pci_devices2.EtherDevice.coalescedRxOk          nan                       # Average number of RxOk's coalesced into each post ((Count/Count))
testsys.pci_devices2.EtherDevice.postedRxDesc            0                       # Number of RxDesc interrupts posted to CPU (Count)
testsys.pci_devices2.EtherDevice.totalRxDesc            0                       # Total number of RxDesc written to ISR (Count)
testsys.pci_devices2.EtherDevice.coalescedRxDesc          nan                       # Average number of RxDesc's coalesced into each post ((Count/Count))
testsys.pci_devices2.EtherDevice.postedTxOk            0                       # Number of TxOk interrupts posted to CPU (Count)
testsys.pci_devices2.EtherDevice.totalTxOk            0                       # Total number of TxOk written to ISR (Count)
testsys.pci_devices2.EtherDevice.coalescedTxOk          nan                       # Average number of TxOk's coalesced into each post ((Count/Count))
testsys.pci_devices2.EtherDevice.postedTxIdle            0                       # Number of TxIdle interrupts posted to CPU (Count)
testsys.pci_devices2.EtherDevice.totalTxIdle            0                       # Total number of TxIdle written to ISR (Count)
testsys.pci_devices2.EtherDevice.coalescedTxIdle          nan                       # Average number of TxIdle's coalesced into each post ((Count/Count))
testsys.pci_devices2.EtherDevice.postedTxDesc            0                       # Number of TxDesc interrupts posted to CPU (Count)
testsys.pci_devices2.EtherDevice.totalTxDesc            0                       # Total number of TxDesc written to ISR (Count)
testsys.pci_devices2.EtherDevice.coalescedTxDesc          nan                       # Average number of TxDesc's coalesced into each post ((Count/Count))
testsys.pci_devices2.EtherDevice.postedRxOrn            0                       # Number of RxOrn posted to CPU (Count)
testsys.pci_devices2.EtherDevice.totalRxOrn            0                       # Total number of RxOrn written to ISR (Count)
testsys.pci_devices2.EtherDevice.coalescedRxOrn          nan                       # Average number of RxOrn's coalesced into each post ((Count/Count))
testsys.pci_devices2.EtherDevice.coalescedTotal          nan                       # Average number of interrupts coalesced into each post ((Count/Count))
testsys.pci_devices2.EtherDevice.droppedPackets            0                       # Number of packets dropped (Count)
testsys.pci_devices2.power_state.pwrStateResidencyTicks::UNDEFINED 4084712000250                       # Cumulative time (in ticks) in various power states (Tick)
testsys.pci_devices3.EtherDevice.postedInterrupts            0                       # Number of posts to CPU (Count)
testsys.pci_devices3.EtherDevice.descDmaReads            0                       # Number of descriptors the device read w/ DMA (Count)
testsys.pci_devices3.EtherDevice.descDmaWrites            0                       # Number of descriptors the device wrote w/ DMA (Count)
testsys.pci_devices3.EtherDevice.descDmaRdBytes            0                       # Number of descriptor bytes read w/ DMA (Count)
testsys.pci_devices3.EtherDevice.descDmaWrBytes            0                       # Number of descriptor bytes write w/ DMA (Count)
testsys.pci_devices3.EtherDevice.postedSwi            0                       # Number of software interrupts posted to CPU (Count)
testsys.pci_devices3.EtherDevice.totalSwi            0                       # Total number of Swi written to ISR (Count)
testsys.pci_devices3.EtherDevice.coalescedSwi          nan                       # Average number of Swi's coalesced into each post ((Count/Count))
testsys.pci_devices3.EtherDevice.postedRxIdle            0                       # Number of rxIdle interrupts posted to CPU (Count)
testsys.pci_devices3.EtherDevice.totalRxIdle            0                       # Total number of RxIdle written to ISR (Count)
testsys.pci_devices3.EtherDevice.coalescedRxIdle          nan                       # Average number of RxIdle's coalesced into each post ((Count/Count))
testsys.pci_devices3.EtherDevice.postedRxOk            0                       # Number of RxOk interrupts posted to CPU (Count)
testsys.pci_devices3.EtherDevice.totalRxOk            0                       # Total number of RxOk written to ISR (Count)
testsys.pci_devices3.EtherDevice.coalescedRxOk          nan                       # Average number of RxOk's coalesced into each post ((Count/Count))
testsys.pci_devices3.EtherDevice.postedRxDesc            0                       # Number of RxDesc interrupts posted to CPU (Count)
testsys.pci_devices3.EtherDevice.totalRxDesc            0                       # Total number of RxDesc written to ISR (Count)
testsys.pci_devices3.EtherDevice.coalescedRxDesc          nan                       # Average number of RxDesc's coalesced into each post ((Count/Count))
testsys.pci_devices3.EtherDevice.postedTxOk            0                       # Number of TxOk interrupts posted to CPU (Count)
testsys.pci_devices3.EtherDevice.totalTxOk            0                       # Total number of TxOk written to ISR (Count)
testsys.pci_devices3.EtherDevice.coalescedTxOk          nan                       # Average number of TxOk's coalesced into each post ((Count/Count))
testsys.pci_devices3.EtherDevice.postedTxIdle            0                       # Number of TxIdle interrupts posted to CPU (Count)
testsys.pci_devices3.EtherDevice.totalTxIdle            0                       # Total number of TxIdle written to ISR (Count)
testsys.pci_devices3.EtherDevice.coalescedTxIdle          nan                       # Average number of TxIdle's coalesced into each post ((Count/Count))
testsys.pci_devices3.EtherDevice.postedTxDesc            0                       # Number of TxDesc interrupts posted to CPU (Count)
testsys.pci_devices3.EtherDevice.totalTxDesc            0                       # Total number of TxDesc written to ISR (Count)
testsys.pci_devices3.EtherDevice.coalescedTxDesc          nan                       # Average number of TxDesc's coalesced into each post ((Count/Count))
testsys.pci_devices3.EtherDevice.postedRxOrn            0                       # Number of RxOrn posted to CPU (Count)
testsys.pci_devices3.EtherDevice.totalRxOrn            0                       # Total number of RxOrn written to ISR (Count)
testsys.pci_devices3.EtherDevice.coalescedRxOrn          nan                       # Average number of RxOrn's coalesced into each post ((Count/Count))
testsys.pci_devices3.EtherDevice.coalescedTotal          nan                       # Average number of interrupts coalesced into each post ((Count/Count))
testsys.pci_devices3.EtherDevice.droppedPackets            0                       # Number of packets dropped (Count)
testsys.pci_devices3.power_state.pwrStateResidencyTicks::UNDEFINED 4084712000250                       # Cumulative time (in ticks) in various power states (Tick)
testsys.pci_devices4.EtherDevice.postedInterrupts            0                       # Number of posts to CPU (Count)
testsys.pci_devices4.EtherDevice.descDmaReads            0                       # Number of descriptors the device read w/ DMA (Count)
testsys.pci_devices4.EtherDevice.descDmaWrites            0                       # Number of descriptors the device wrote w/ DMA (Count)
testsys.pci_devices4.EtherDevice.descDmaRdBytes            0                       # Number of descriptor bytes read w/ DMA (Count)
testsys.pci_devices4.EtherDevice.descDmaWrBytes            0                       # Number of descriptor bytes write w/ DMA (Count)
testsys.pci_devices4.EtherDevice.postedSwi            0                       # Number of software interrupts posted to CPU (Count)
testsys.pci_devices4.EtherDevice.totalSwi            0                       # Total number of Swi written to ISR (Count)
testsys.pci_devices4.EtherDevice.coalescedSwi          nan                       # Average number of Swi's coalesced into each post ((Count/Count))
testsys.pci_devices4.EtherDevice.postedRxIdle            0                       # Number of rxIdle interrupts posted to CPU (Count)
testsys.pci_devices4.EtherDevice.totalRxIdle            0                       # Total number of RxIdle written to ISR (Count)
testsys.pci_devices4.EtherDevice.coalescedRxIdle          nan                       # Average number of RxIdle's coalesced into each post ((Count/Count))
testsys.pci_devices4.EtherDevice.postedRxOk            0                       # Number of RxOk interrupts posted to CPU (Count)
testsys.pci_devices4.EtherDevice.totalRxOk            0                       # Total number of RxOk written to ISR (Count)
testsys.pci_devices4.EtherDevice.coalescedRxOk          nan                       # Average number of RxOk's coalesced into each post ((Count/Count))
testsys.pci_devices4.EtherDevice.postedRxDesc            0                       # Number of RxDesc interrupts posted to CPU (Count)
testsys.pci_devices4.EtherDevice.totalRxDesc            0                       # Total number of RxDesc written to ISR (Count)
testsys.pci_devices4.EtherDevice.coalescedRxDesc          nan                       # Average number of RxDesc's coalesced into each post ((Count/Count))
testsys.pci_devices4.EtherDevice.postedTxOk            0                       # Number of TxOk interrupts posted to CPU (Count)
testsys.pci_devices4.EtherDevice.totalTxOk            0                       # Total number of TxOk written to ISR (Count)
testsys.pci_devices4.EtherDevice.coalescedTxOk          nan                       # Average number of TxOk's coalesced into each post ((Count/Count))
testsys.pci_devices4.EtherDevice.postedTxIdle            0                       # Number of TxIdle interrupts posted to CPU (Count)
testsys.pci_devices4.EtherDevice.totalTxIdle            0                       # Total number of TxIdle written to ISR (Count)
testsys.pci_devices4.EtherDevice.coalescedTxIdle          nan                       # Average number of TxIdle's coalesced into each post ((Count/Count))
testsys.pci_devices4.EtherDevice.postedTxDesc            0                       # Number of TxDesc interrupts posted to CPU (Count)
testsys.pci_devices4.EtherDevice.totalTxDesc            0                       # Total number of TxDesc written to ISR (Count)
testsys.pci_devices4.EtherDevice.coalescedTxDesc          nan                       # Average number of TxDesc's coalesced into each post ((Count/Count))
testsys.pci_devices4.EtherDevice.postedRxOrn            0                       # Number of RxOrn posted to CPU (Count)
testsys.pci_devices4.EtherDevice.totalRxOrn            0                       # Total number of RxOrn written to ISR (Count)
testsys.pci_devices4.EtherDevice.coalescedRxOrn          nan                       # Average number of RxOrn's coalesced into each post ((Count/Count))
testsys.pci_devices4.EtherDevice.coalescedTotal          nan                       # Average number of interrupts coalesced into each post ((Count/Count))
testsys.pci_devices4.EtherDevice.droppedPackets            0                       # Number of packets dropped (Count)
testsys.pci_devices4.power_state.pwrStateResidencyTicks::UNDEFINED 4084712000250                       # Cumulative time (in ticks) in various power states (Tick)
testsys.realview.bootmem.power_state.pwrStateResidencyTicks::UNDEFINED 4084712000250                       # Cumulative time (in ticks) in various power states (Tick)
testsys.realview.clock24MHz.clock               41667                       # Clock period in ticks (Tick)
testsys.realview.clock32KHz.clock            31250000                       # Clock period in ticks (Tick)
testsys.realview.dcc.osc_cpu.clock              16667                       # Clock period in ticks (Tick)
testsys.realview.dcc.osc_ddr.clock              25000                       # Clock period in ticks (Tick)
testsys.realview.dcc.osc_hsbm.clock             25000                       # Clock period in ticks (Tick)
testsys.realview.dcc.osc_pxl.clock              42105                       # Clock period in ticks (Tick)
testsys.realview.dcc.osc_smb.clock              20000                       # Clock period in ticks (Tick)
testsys.realview.dcc.osc_sys.clock              16667                       # Clock period in ticks (Tick)
testsys.realview.el2_watchdog.power_state.pwrStateResidencyTicks::UNDEFINED 4084712000250                       # Cumulative time (in ticks) in various power states (Tick)
testsys.realview.energy_ctrl.power_state.pwrStateResidencyTicks::UNDEFINED 4084712000250                       # Cumulative time (in ticks) in various power states (Tick)
testsys.realview.flash0.power_state.pwrStateResidencyTicks::UNDEFINED 4084712000250                       # Cumulative time (in ticks) in various power states (Tick)
testsys.realview.flash1.power_state.pwrStateResidencyTicks::UNDEFINED 4084712000250                       # Cumulative time (in ticks) in various power states (Tick)
testsys.realview.generic_timer_mem.frames0.power_state.pwrStateResidencyTicks::UNDEFINED 4084712000250                       # Cumulative time (in ticks) in various power states (Tick)
testsys.realview.generic_timer_mem.frames1.power_state.pwrStateResidencyTicks::UNDEFINED 4084712000250                       # Cumulative time (in ticks) in various power states (Tick)
testsys.realview.generic_timer_mem.power_state.pwrStateResidencyTicks::UNDEFINED 4084712000250                       # Cumulative time (in ticks) in various power states (Tick)
testsys.realview.gic.power_state.pwrStateResidencyTicks::UNDEFINED 4084712000250                       # Cumulative time (in ticks) in various power states (Tick)
testsys.realview.gicv2m.power_state.pwrStateResidencyTicks::UNDEFINED 4084712000250                       # Cumulative time (in ticks) in various power states (Tick)
testsys.realview.io_voltage.voltage          3.300000                       # Voltage in Volts (Volt)
testsys.realview.kmi0.power_state.pwrStateResidencyTicks::UNDEFINED 4084712000250                       # Cumulative time (in ticks) in various power states (Tick)
testsys.realview.kmi1.power_state.pwrStateResidencyTicks::UNDEFINED 4084712000250                       # Cumulative time (in ticks) in various power states (Tick)
testsys.realview.mcc.osc_clcd.clock             42105                       # Clock period in ticks (Tick)
testsys.realview.mcc.osc_mcc.clock              20000                       # Clock period in ticks (Tick)
testsys.realview.mcc.osc_peripheral.clock        41667                       # Clock period in ticks (Tick)
testsys.realview.mcc.osc_system_bus.clock        41667                       # Clock period in ticks (Tick)
testsys.realview.non_trusted_sram.power_state.pwrStateResidencyTicks::UNDEFINED 4084712000250                       # Cumulative time (in ticks) in various power states (Tick)
testsys.realview.pci_host.power_state.pwrStateResidencyTicks::UNDEFINED 4084712000250                       # Cumulative time (in ticks) in various power states (Tick)
testsys.realview.pwr_ctrl.power_state.pwrStateResidencyTicks::UNDEFINED 4084712000250                       # Cumulative time (in ticks) in various power states (Tick)
testsys.realview.realview_io.power_state.pwrStateResidencyTicks::UNDEFINED 4084712000250                       # Cumulative time (in ticks) in various power states (Tick)
testsys.realview.rtc.power_state.pwrStateResidencyTicks::UNDEFINED 4084712000250                       # Cumulative time (in ticks) in various power states (Tick)
testsys.realview.system_watchdog.power_state.pwrStateResidencyTicks::UNDEFINED 4084712000250                       # Cumulative time (in ticks) in various power states (Tick)
testsys.realview.trusted_sram.power_state.pwrStateResidencyTicks::UNDEFINED 4084712000250                       # Cumulative time (in ticks) in various power states (Tick)
testsys.realview.trusted_watchdog.power_state.pwrStateResidencyTicks::UNDEFINED 4084712000250                       # Cumulative time (in ticks) in various power states (Tick)
testsys.realview.uart0.power_state.pwrStateResidencyTicks::UNDEFINED 4084712000250                       # Cumulative time (in ticks) in various power states (Tick)
testsys.realview.uart1.power_state.pwrStateResidencyTicks::UNDEFINED 4084712000250                       # Cumulative time (in ticks) in various power states (Tick)
testsys.realview.uart2.power_state.pwrStateResidencyTicks::UNDEFINED 4084712000250                       # Cumulative time (in ticks) in various power states (Tick)
testsys.realview.uart3.power_state.pwrStateResidencyTicks::UNDEFINED 4084712000250                       # Cumulative time (in ticks) in various power states (Tick)
testsys.realview.vgic.power_state.pwrStateResidencyTicks::UNDEFINED 4084712000250                       # Cumulative time (in ticks) in various power states (Tick)
testsys.realview.vio0.power_state.pwrStateResidencyTicks::UNDEFINED 4084712000250                       # Cumulative time (in ticks) in various power states (Tick)
testsys.realview.vio1.power_state.pwrStateResidencyTicks::UNDEFINED 4084712000250                       # Cumulative time (in ticks) in various power states (Tick)
testsys.realview.vram.power_state.pwrStateResidencyTicks::UNDEFINED 4084712000250                       # Cumulative time (in ticks) in various power states (Tick)
testsys.realview.watchdog.power_state.pwrStateResidencyTicks::UNDEFINED 4084712000250                       # Cumulative time (in ticks) in various power states (Tick)
testsys.voltage_domain.voltage                      1                       # Voltage in Volts (Volt)
testsys.workload.inst.arm                           0                       # number of arm instructions executed (Count)
testsys.workload.inst.quiesce                   23297                       # number of quiesce instructions executed (Count)

---------- End Simulation Statistics   ----------
