
---------- Begin Simulation Statistics ----------
simSeconds                                   0.485520                       # Number of seconds simulated (Second)
simTicks                                 485519678750                       # Number of ticks simulated (Tick)
finalTick                                485519678750                       # Number of ticks from beginning of simulation (restored from checkpoints and never reset) (Tick)
simFreq                                  1000000000000                       # The number of ticks per simulated second ((Tick/Second))
hostSeconds                                    974.42                       # Real time elapsed on the host (Second)
hostTickRate                                498266218                       # The number of ticks simulated per host second (ticks/s) ((Tick/Second))
hostMemory                                    3095772                       # Number of bytes of host memory used (Byte)
simInsts                                    232487030                       # Number of instructions simulated (Count)
simOps                                      257250904                       # Number of ops (including micro ops) simulated (Count)
hostInstRate                                   238591                       # Simulator instruction rate (inst/s) ((Count/Second))
hostOpRate                                     264005                       # Simulator op (including micro ops) rate (op/s) ((Count/Second))
testsys.clk_domain.clock                         1000                       # Clock period in ticks (Tick)
testsys.cpu_cluster.clk_domain.clock              250                       # Clock period in ticks (Tick)
testsys.cpu_cluster.cpus0.numCycles         545279421                       # Number of cpu cycles simulated (Cycle)
testsys.cpu_cluster.cpus0.numWorkItemsStarted            0                       # Number of work items this cpu started (Count)
testsys.cpu_cluster.cpus0.numWorkItemsCompleted            0                       # Number of work items this cpu completed (Count)
testsys.cpu_cluster.cpus0.numInsts          140552686                       # Number of instructions committed (Count)
testsys.cpu_cluster.cpus0.numOps            154373392                       # Number of ops (including micro ops) committed (Count)
testsys.cpu_cluster.cpus0.numDiscardedOps      6587912                       # Number of ops (including micro ops) which were discarded before commit (Count)
testsys.cpu_cluster.cpus0.numFetchSuspends         2776                       # Number of times Execute suspended instruction fetching (Count)
testsys.cpu_cluster.cpus0.quiesceCycles    1396796661                       # Total number of cycles that CPU has spent quiesced or waiting for an interrupt (Cycle)
testsys.cpu_cluster.cpus0.cpi                3.879538                       # CPI: cycles per instruction ((Cycle/Count))
testsys.cpu_cluster.cpus0.ipc                0.257763                       # IPC: instructions per cycle ((Count/Cycle))
testsys.cpu_cluster.cpus0.committedInstType_0::No_OpClass        32721      0.02%      0.02% # Class of committed instruction (Count)
testsys.cpu_cluster.cpus0.committedInstType_0::IntAlu    115582994     74.87%     74.89% # Class of committed instruction (Count)
testsys.cpu_cluster.cpus0.committedInstType_0::IntMult       693174      0.45%     75.34% # Class of committed instruction (Count)
testsys.cpu_cluster.cpus0.committedInstType_0::IntDiv        10596      0.01%     75.35% # Class of committed instruction (Count)
testsys.cpu_cluster.cpus0.committedInstType_0::FloatAdd            0      0.00%     75.35% # Class of committed instruction (Count)
testsys.cpu_cluster.cpus0.committedInstType_0::FloatCmp            0      0.00%     75.35% # Class of committed instruction (Count)
testsys.cpu_cluster.cpus0.committedInstType_0::FloatCvt            0      0.00%     75.35% # Class of committed instruction (Count)
testsys.cpu_cluster.cpus0.committedInstType_0::FloatMult            0      0.00%     75.35% # Class of committed instruction (Count)
testsys.cpu_cluster.cpus0.committedInstType_0::FloatMultAcc            0      0.00%     75.35% # Class of committed instruction (Count)
testsys.cpu_cluster.cpus0.committedInstType_0::FloatDiv            0      0.00%     75.35% # Class of committed instruction (Count)
testsys.cpu_cluster.cpus0.committedInstType_0::FloatMisc        24966      0.02%     75.37% # Class of committed instruction (Count)
testsys.cpu_cluster.cpus0.committedInstType_0::FloatSqrt            0      0.00%     75.37% # Class of committed instruction (Count)
testsys.cpu_cluster.cpus0.committedInstType_0::SimdAdd           13      0.00%     75.37% # Class of committed instruction (Count)
testsys.cpu_cluster.cpus0.committedInstType_0::SimdAddAcc            0      0.00%     75.37% # Class of committed instruction (Count)
testsys.cpu_cluster.cpus0.committedInstType_0::SimdAlu            6      0.00%     75.37% # Class of committed instruction (Count)
testsys.cpu_cluster.cpus0.committedInstType_0::SimdCmp            0      0.00%     75.37% # Class of committed instruction (Count)
testsys.cpu_cluster.cpus0.committedInstType_0::SimdCvt            0      0.00%     75.37% # Class of committed instruction (Count)
testsys.cpu_cluster.cpus0.committedInstType_0::SimdMisc          314      0.00%     75.37% # Class of committed instruction (Count)
testsys.cpu_cluster.cpus0.committedInstType_0::SimdMult            0      0.00%     75.37% # Class of committed instruction (Count)
testsys.cpu_cluster.cpus0.committedInstType_0::SimdMultAcc            0      0.00%     75.37% # Class of committed instruction (Count)
testsys.cpu_cluster.cpus0.committedInstType_0::SimdShift            0      0.00%     75.37% # Class of committed instruction (Count)
testsys.cpu_cluster.cpus0.committedInstType_0::SimdShiftAcc            0      0.00%     75.37% # Class of committed instruction (Count)
testsys.cpu_cluster.cpus0.committedInstType_0::SimdDiv            0      0.00%     75.37% # Class of committed instruction (Count)
testsys.cpu_cluster.cpus0.committedInstType_0::SimdSqrt            0      0.00%     75.37% # Class of committed instruction (Count)
testsys.cpu_cluster.cpus0.committedInstType_0::SimdFloatAdd            0      0.00%     75.37% # Class of committed instruction (Count)
testsys.cpu_cluster.cpus0.committedInstType_0::SimdFloatAlu            0      0.00%     75.37% # Class of committed instruction (Count)
testsys.cpu_cluster.cpus0.committedInstType_0::SimdFloatCmp            0      0.00%     75.37% # Class of committed instruction (Count)
testsys.cpu_cluster.cpus0.committedInstType_0::SimdFloatCvt            0      0.00%     75.37% # Class of committed instruction (Count)
testsys.cpu_cluster.cpus0.committedInstType_0::SimdFloatDiv            0      0.00%     75.37% # Class of committed instruction (Count)
testsys.cpu_cluster.cpus0.committedInstType_0::SimdFloatMisc            0      0.00%     75.37% # Class of committed instruction (Count)
testsys.cpu_cluster.cpus0.committedInstType_0::SimdFloatMult            0      0.00%     75.37% # Class of committed instruction (Count)
testsys.cpu_cluster.cpus0.committedInstType_0::SimdFloatMultAcc            0      0.00%     75.37% # Class of committed instruction (Count)
testsys.cpu_cluster.cpus0.committedInstType_0::SimdFloatSqrt            0      0.00%     75.37% # Class of committed instruction (Count)
testsys.cpu_cluster.cpus0.committedInstType_0::SimdReduceAdd            0      0.00%     75.37% # Class of committed instruction (Count)
testsys.cpu_cluster.cpus0.committedInstType_0::SimdReduceAlu            0      0.00%     75.37% # Class of committed instruction (Count)
testsys.cpu_cluster.cpus0.committedInstType_0::SimdReduceCmp            0      0.00%     75.37% # Class of committed instruction (Count)
testsys.cpu_cluster.cpus0.committedInstType_0::SimdFloatReduceAdd            0      0.00%     75.37% # Class of committed instruction (Count)
testsys.cpu_cluster.cpus0.committedInstType_0::SimdFloatReduceCmp            0      0.00%     75.37% # Class of committed instruction (Count)
testsys.cpu_cluster.cpus0.committedInstType_0::SimdAes            0      0.00%     75.37% # Class of committed instruction (Count)
testsys.cpu_cluster.cpus0.committedInstType_0::SimdAesMix            0      0.00%     75.37% # Class of committed instruction (Count)
testsys.cpu_cluster.cpus0.committedInstType_0::SimdSha1Hash            0      0.00%     75.37% # Class of committed instruction (Count)
testsys.cpu_cluster.cpus0.committedInstType_0::SimdSha1Hash2            0      0.00%     75.37% # Class of committed instruction (Count)
testsys.cpu_cluster.cpus0.committedInstType_0::SimdSha256Hash            0      0.00%     75.37% # Class of committed instruction (Count)
testsys.cpu_cluster.cpus0.committedInstType_0::SimdSha256Hash2            0      0.00%     75.37% # Class of committed instruction (Count)
testsys.cpu_cluster.cpus0.committedInstType_0::SimdShaSigma2            0      0.00%     75.37% # Class of committed instruction (Count)
testsys.cpu_cluster.cpus0.committedInstType_0::SimdShaSigma3            0      0.00%     75.37% # Class of committed instruction (Count)
testsys.cpu_cluster.cpus0.committedInstType_0::SimdPredAlu            0      0.00%     75.37% # Class of committed instruction (Count)
testsys.cpu_cluster.cpus0.committedInstType_0::MemRead     21655309     14.03%     89.39% # Class of committed instruction (Count)
testsys.cpu_cluster.cpus0.committedInstType_0::MemWrite     16373299     10.61%    100.00% # Class of committed instruction (Count)
testsys.cpu_cluster.cpus0.committedInstType_0::FloatMemRead            0      0.00%    100.00% # Class of committed instruction (Count)
testsys.cpu_cluster.cpus0.committedInstType_0::FloatMemWrite            0      0.00%    100.00% # Class of committed instruction (Count)
testsys.cpu_cluster.cpus0.committedInstType_0::IprAccess            0      0.00%    100.00% # Class of committed instruction (Count)
testsys.cpu_cluster.cpus0.committedInstType_0::InstPrefetch            0      0.00%    100.00% # Class of committed instruction (Count)
testsys.cpu_cluster.cpus0.committedInstType_0::total    154373392                       # Class of committed instruction (Count)
testsys.cpu_cluster.cpus0.branchPred.lookups     35962442                       # Number of BP lookups (Count)
testsys.cpu_cluster.cpus0.branchPred.condPredicted     23408930                       # Number of conditional branches predicted (Count)
testsys.cpu_cluster.cpus0.branchPred.condIncorrect       803040                       # Number of conditional branches incorrect (Count)
testsys.cpu_cluster.cpus0.branchPred.BTBLookups     16344278                       # Number of BTB lookups (Count)
testsys.cpu_cluster.cpus0.branchPred.BTBHits     15708708                       # Number of BTB hits (Count)
testsys.cpu_cluster.cpus0.branchPred.BTBHitRatio     0.961114                       # BTB Hit Ratio (Ratio)
testsys.cpu_cluster.cpus0.branchPred.RASUsed      4652921                       # Number of times the RAS was used to get a target. (Count)
testsys.cpu_cluster.cpus0.branchPred.RASIncorrect       279464                       # Number of incorrect RAS predictions. (Count)
testsys.cpu_cluster.cpus0.branchPred.indirectLookups       590389                       # Number of indirect predictor lookups. (Count)
testsys.cpu_cluster.cpus0.branchPred.indirectHits       541581                       # Number of indirect target hits. (Count)
testsys.cpu_cluster.cpus0.branchPred.indirectMisses        48808                       # Number of indirect misses. (Count)
testsys.cpu_cluster.cpus0.branchPred.indirectMispredicted        14971                       # Number of mispredicted indirect branches. (Count)
testsys.cpu_cluster.cpus0.dcache.demandHits::cpu_cluster.cpus0.data     34744835                       # number of demand (read+write) hits (Count)
testsys.cpu_cluster.cpus0.dcache.demandHits::total     34744835                       # number of demand (read+write) hits (Count)
testsys.cpu_cluster.cpus0.dcache.overallHits::cpu_cluster.cpus0.data     34791282                       # number of overall hits (Count)
testsys.cpu_cluster.cpus0.dcache.overallHits::total     34791282                       # number of overall hits (Count)
testsys.cpu_cluster.cpus0.dcache.demandMisses::cpu_cluster.cpus0.data      3149694                       # number of demand (read+write) misses (Count)
testsys.cpu_cluster.cpus0.dcache.demandMisses::total      3149694                       # number of demand (read+write) misses (Count)
testsys.cpu_cluster.cpus0.dcache.overallMisses::cpu_cluster.cpus0.data      3658129                       # number of overall misses (Count)
testsys.cpu_cluster.cpus0.dcache.overallMisses::total      3658129                       # number of overall misses (Count)
testsys.cpu_cluster.cpus0.dcache.demandMissLatency::cpu_cluster.cpus0.data  77945246500                       # number of demand (read+write) miss ticks (Tick)
testsys.cpu_cluster.cpus0.dcache.demandMissLatency::total  77945246500                       # number of demand (read+write) miss ticks (Tick)
testsys.cpu_cluster.cpus0.dcache.overallMissLatency::cpu_cluster.cpus0.data  77945246500                       # number of overall miss ticks (Tick)
testsys.cpu_cluster.cpus0.dcache.overallMissLatency::total  77945246500                       # number of overall miss ticks (Tick)
testsys.cpu_cluster.cpus0.dcache.demandAccesses::cpu_cluster.cpus0.data     37894529                       # number of demand (read+write) accesses (Count)
testsys.cpu_cluster.cpus0.dcache.demandAccesses::total     37894529                       # number of demand (read+write) accesses (Count)
testsys.cpu_cluster.cpus0.dcache.overallAccesses::cpu_cluster.cpus0.data     38449411                       # number of overall (read+write) accesses (Count)
testsys.cpu_cluster.cpus0.dcache.overallAccesses::total     38449411                       # number of overall (read+write) accesses (Count)
testsys.cpu_cluster.cpus0.dcache.demandMissRate::cpu_cluster.cpus0.data     0.083117                       # miss rate for demand accesses (Ratio)
testsys.cpu_cluster.cpus0.dcache.demandMissRate::total     0.083117                       # miss rate for demand accesses (Ratio)
testsys.cpu_cluster.cpus0.dcache.overallMissRate::cpu_cluster.cpus0.data     0.095141                       # miss rate for overall accesses (Ratio)
testsys.cpu_cluster.cpus0.dcache.overallMissRate::total     0.095141                       # miss rate for overall accesses (Ratio)
testsys.cpu_cluster.cpus0.dcache.demandAvgMissLatency::cpu_cluster.cpus0.data 24746.926686                       # average overall miss latency ((Cycle/Count))
testsys.cpu_cluster.cpus0.dcache.demandAvgMissLatency::total 24746.926686                       # average overall miss latency ((Cycle/Count))
testsys.cpu_cluster.cpus0.dcache.overallAvgMissLatency::cpu_cluster.cpus0.data 21307.407831                       # average overall miss latency ((Cycle/Count))
testsys.cpu_cluster.cpus0.dcache.overallAvgMissLatency::total 21307.407831                       # average overall miss latency ((Cycle/Count))
testsys.cpu_cluster.cpus0.dcache.blockedCycles::no_mshrs            0                       # number of cycles access was blocked (Cycle)
testsys.cpu_cluster.cpus0.dcache.blockedCycles::no_targets            0                       # number of cycles access was blocked (Cycle)
testsys.cpu_cluster.cpus0.dcache.blockedCauses::no_mshrs            0                       # number of times access was blocked (Count)
testsys.cpu_cluster.cpus0.dcache.blockedCauses::no_targets            0                       # number of times access was blocked (Count)
testsys.cpu_cluster.cpus0.dcache.avgBlocked::no_mshrs          nan                       # average number of cycles each access was blocked ((Cycle/Count))
testsys.cpu_cluster.cpus0.dcache.avgBlocked::no_targets          nan                       # average number of cycles each access was blocked ((Cycle/Count))
testsys.cpu_cluster.cpus0.dcache.writebacks::writebacks      2100202                       # number of writebacks (Count)
testsys.cpu_cluster.cpus0.dcache.writebacks::total      2100202                       # number of writebacks (Count)
testsys.cpu_cluster.cpus0.dcache.demandMshrHits::cpu_cluster.cpus0.data      1137806                       # number of demand (read+write) MSHR hits (Count)
testsys.cpu_cluster.cpus0.dcache.demandMshrHits::total      1137806                       # number of demand (read+write) MSHR hits (Count)
testsys.cpu_cluster.cpus0.dcache.overallMshrHits::cpu_cluster.cpus0.data      1137806                       # number of overall MSHR hits (Count)
testsys.cpu_cluster.cpus0.dcache.overallMshrHits::total      1137806                       # number of overall MSHR hits (Count)
testsys.cpu_cluster.cpus0.dcache.demandMshrMisses::cpu_cluster.cpus0.data      2011888                       # number of demand (read+write) MSHR misses (Count)
testsys.cpu_cluster.cpus0.dcache.demandMshrMisses::total      2011888                       # number of demand (read+write) MSHR misses (Count)
testsys.cpu_cluster.cpus0.dcache.overallMshrMisses::cpu_cluster.cpus0.data      2520296                       # number of overall MSHR misses (Count)
testsys.cpu_cluster.cpus0.dcache.overallMshrMisses::total      2520296                       # number of overall MSHR misses (Count)
testsys.cpu_cluster.cpus0.dcache.overallMshrUncacheable::cpu_cluster.cpus0.data        15671                       # number of overall MSHR uncacheable misses (Count)
testsys.cpu_cluster.cpus0.dcache.overallMshrUncacheable::total        15671                       # number of overall MSHR uncacheable misses (Count)
testsys.cpu_cluster.cpus0.dcache.demandMshrMissLatency::cpu_cluster.cpus0.data  44883792500                       # number of demand (read+write) MSHR miss ticks (Tick)
testsys.cpu_cluster.cpus0.dcache.demandMshrMissLatency::total  44883792500                       # number of demand (read+write) MSHR miss ticks (Tick)
testsys.cpu_cluster.cpus0.dcache.overallMshrMissLatency::cpu_cluster.cpus0.data  77003226500                       # number of overall MSHR miss ticks (Tick)
testsys.cpu_cluster.cpus0.dcache.overallMshrMissLatency::total  77003226500                       # number of overall MSHR miss ticks (Tick)
testsys.cpu_cluster.cpus0.dcache.overallMshrUncacheableLatency::cpu_cluster.cpus0.data   1185419000                       # number of overall MSHR uncacheable ticks (Tick)
testsys.cpu_cluster.cpus0.dcache.overallMshrUncacheableLatency::total   1185419000                       # number of overall MSHR uncacheable ticks (Tick)
testsys.cpu_cluster.cpus0.dcache.demandMshrMissRate::cpu_cluster.cpus0.data     0.053092                       # mshr miss ratio for demand accesses (Ratio)
testsys.cpu_cluster.cpus0.dcache.demandMshrMissRate::total     0.053092                       # mshr miss ratio for demand accesses (Ratio)
testsys.cpu_cluster.cpus0.dcache.overallMshrMissRate::cpu_cluster.cpus0.data     0.065548                       # mshr miss ratio for overall accesses (Ratio)
testsys.cpu_cluster.cpus0.dcache.overallMshrMissRate::total     0.065548                       # mshr miss ratio for overall accesses (Ratio)
testsys.cpu_cluster.cpus0.dcache.demandAvgMshrMissLatency::cpu_cluster.cpus0.data 22309.289831                       # average overall mshr miss latency ((Cycle/Count))
testsys.cpu_cluster.cpus0.dcache.demandAvgMshrMissLatency::total 22309.289831                       # average overall mshr miss latency ((Cycle/Count))
testsys.cpu_cluster.cpus0.dcache.overallAvgMshrMissLatency::cpu_cluster.cpus0.data 30553.247119                       # average overall mshr miss latency ((Cycle/Count))
testsys.cpu_cluster.cpus0.dcache.overallAvgMshrMissLatency::total 30553.247119                       # average overall mshr miss latency ((Cycle/Count))
testsys.cpu_cluster.cpus0.dcache.overallAvgMshrUncacheableLatency::cpu_cluster.cpus0.data 75644.119712                       # average overall mshr uncacheable latency ((Cycle/Count))
testsys.cpu_cluster.cpus0.dcache.overallAvgMshrUncacheableLatency::total 75644.119712                       # average overall mshr uncacheable latency ((Cycle/Count))
testsys.cpu_cluster.cpus0.dcache.replacements      2428763                       # number of replacements (Count)
testsys.cpu_cluster.cpus0.dcache.CleanInvalidReq.missLatency::cpu_cluster.cpus0.data    495570250                       # number of CleanInvalidReq miss ticks (Tick)
testsys.cpu_cluster.cpus0.dcache.CleanInvalidReq.missLatency::total    495570250                       # number of CleanInvalidReq miss ticks (Tick)
testsys.cpu_cluster.cpus0.dcache.CleanInvalidReq.avgMissLatency::cpu_cluster.cpus0.data          inf                       # average CleanInvalidReq miss latency ((Tick/Count))
testsys.cpu_cluster.cpus0.dcache.CleanInvalidReq.avgMissLatency::total          inf                       # average CleanInvalidReq miss latency ((Tick/Count))
testsys.cpu_cluster.cpus0.dcache.CleanInvalidReq.mshrHits::cpu_cluster.cpus0.data         9311                       # number of CleanInvalidReq MSHR hits (Count)
testsys.cpu_cluster.cpus0.dcache.CleanInvalidReq.mshrHits::total         9311                       # number of CleanInvalidReq MSHR hits (Count)
testsys.cpu_cluster.cpus0.dcache.CleanInvalidReq.mshrMisses::cpu_cluster.cpus0.data         4216                       # number of CleanInvalidReq MSHR misses (Count)
testsys.cpu_cluster.cpus0.dcache.CleanInvalidReq.mshrMisses::total         4216                       # number of CleanInvalidReq MSHR misses (Count)
testsys.cpu_cluster.cpus0.dcache.CleanInvalidReq.mshrMissLatency::cpu_cluster.cpus0.data    492557500                       # number of CleanInvalidReq MSHR miss ticks (Tick)
testsys.cpu_cluster.cpus0.dcache.CleanInvalidReq.mshrMissLatency::total    492557500                       # number of CleanInvalidReq MSHR miss ticks (Tick)
testsys.cpu_cluster.cpus0.dcache.CleanInvalidReq.mshrMissRate::cpu_cluster.cpus0.data          inf                       # mshr miss rate for CleanInvalidReq accesses (Ratio)
testsys.cpu_cluster.cpus0.dcache.CleanInvalidReq.mshrMissRate::total          inf                       # mshr miss rate for CleanInvalidReq accesses (Ratio)
testsys.cpu_cluster.cpus0.dcache.CleanInvalidReq.avgMshrMissLatency::cpu_cluster.cpus0.data 116830.526565                       # average CleanInvalidReq mshr miss latency ((Tick/Count))
testsys.cpu_cluster.cpus0.dcache.CleanInvalidReq.avgMshrMissLatency::total 116830.526565                       # average CleanInvalidReq mshr miss latency ((Tick/Count))
testsys.cpu_cluster.cpus0.dcache.CleanSharedReq.missLatency::cpu_cluster.cpus0.data     17643750                       # number of CleanSharedReq miss ticks (Tick)
testsys.cpu_cluster.cpus0.dcache.CleanSharedReq.missLatency::total     17643750                       # number of CleanSharedReq miss ticks (Tick)
testsys.cpu_cluster.cpus0.dcache.CleanSharedReq.avgMissLatency::cpu_cluster.cpus0.data          inf                       # average CleanSharedReq miss latency ((Tick/Count))
testsys.cpu_cluster.cpus0.dcache.CleanSharedReq.avgMissLatency::total          inf                       # average CleanSharedReq miss latency ((Tick/Count))
testsys.cpu_cluster.cpus0.dcache.CleanSharedReq.mshrMisses::cpu_cluster.cpus0.data        14115                       # number of CleanSharedReq MSHR misses (Count)
testsys.cpu_cluster.cpus0.dcache.CleanSharedReq.mshrMisses::total        14115                       # number of CleanSharedReq MSHR misses (Count)
testsys.cpu_cluster.cpus0.dcache.CleanSharedReq.mshrMissLatency::cpu_cluster.cpus0.data     10600365                       # number of CleanSharedReq MSHR miss ticks (Tick)
testsys.cpu_cluster.cpus0.dcache.CleanSharedReq.mshrMissLatency::total     10600365                       # number of CleanSharedReq MSHR miss ticks (Tick)
testsys.cpu_cluster.cpus0.dcache.CleanSharedReq.mshrMissRate::cpu_cluster.cpus0.data          inf                       # mshr miss rate for CleanSharedReq accesses (Ratio)
testsys.cpu_cluster.cpus0.dcache.CleanSharedReq.mshrMissRate::total          inf                       # mshr miss rate for CleanSharedReq accesses (Ratio)
testsys.cpu_cluster.cpus0.dcache.CleanSharedReq.avgMshrMissLatency::cpu_cluster.cpus0.data          751                       # average CleanSharedReq mshr miss latency ((Tick/Count))
testsys.cpu_cluster.cpus0.dcache.CleanSharedReq.avgMshrMissLatency::total          751                       # average CleanSharedReq mshr miss latency ((Tick/Count))
testsys.cpu_cluster.cpus0.dcache.InvalidateReq.mshrMisses::cpu_cluster.cpus0.data       119812                       # number of InvalidateReq MSHR misses (Count)
testsys.cpu_cluster.cpus0.dcache.InvalidateReq.mshrMisses::total       119812                       # number of InvalidateReq MSHR misses (Count)
testsys.cpu_cluster.cpus0.dcache.InvalidateReq.mshrMissLatency::cpu_cluster.cpus0.data   1587509000                       # number of InvalidateReq MSHR miss ticks (Tick)
testsys.cpu_cluster.cpus0.dcache.InvalidateReq.mshrMissLatency::total   1587509000                       # number of InvalidateReq MSHR miss ticks (Tick)
testsys.cpu_cluster.cpus0.dcache.InvalidateReq.mshrMissRate::cpu_cluster.cpus0.data          inf                       # mshr miss rate for InvalidateReq accesses (Ratio)
testsys.cpu_cluster.cpus0.dcache.InvalidateReq.mshrMissRate::total          inf                       # mshr miss rate for InvalidateReq accesses (Ratio)
testsys.cpu_cluster.cpus0.dcache.InvalidateReq.avgMshrMissLatency::cpu_cluster.cpus0.data        13250                       # average InvalidateReq mshr miss latency ((Tick/Count))
testsys.cpu_cluster.cpus0.dcache.InvalidateReq.avgMshrMissLatency::total        13250                       # average InvalidateReq mshr miss latency ((Tick/Count))
testsys.cpu_cluster.cpus0.dcache.LoadLockedReq.hits::cpu_cluster.cpus0.data        43307                       # number of LoadLockedReq hits (Count)
testsys.cpu_cluster.cpus0.dcache.LoadLockedReq.hits::total        43307                       # number of LoadLockedReq hits (Count)
testsys.cpu_cluster.cpus0.dcache.LoadLockedReq.misses::cpu_cluster.cpus0.data         3196                       # number of LoadLockedReq misses (Count)
testsys.cpu_cluster.cpus0.dcache.LoadLockedReq.misses::total         3196                       # number of LoadLockedReq misses (Count)
testsys.cpu_cluster.cpus0.dcache.LoadLockedReq.missLatency::cpu_cluster.cpus0.data     19537750                       # number of LoadLockedReq miss ticks (Tick)
testsys.cpu_cluster.cpus0.dcache.LoadLockedReq.missLatency::total     19537750                       # number of LoadLockedReq miss ticks (Tick)
testsys.cpu_cluster.cpus0.dcache.LoadLockedReq.accesses::cpu_cluster.cpus0.data        46503                       # number of LoadLockedReq accesses(hits+misses) (Count)
testsys.cpu_cluster.cpus0.dcache.LoadLockedReq.accesses::total        46503                       # number of LoadLockedReq accesses(hits+misses) (Count)
testsys.cpu_cluster.cpus0.dcache.LoadLockedReq.missRate::cpu_cluster.cpus0.data     0.068727                       # miss rate for LoadLockedReq accesses (Ratio)
testsys.cpu_cluster.cpus0.dcache.LoadLockedReq.missRate::total     0.068727                       # miss rate for LoadLockedReq accesses (Ratio)
testsys.cpu_cluster.cpus0.dcache.LoadLockedReq.avgMissLatency::cpu_cluster.cpus0.data  6113.188360                       # average LoadLockedReq miss latency ((Tick/Count))
testsys.cpu_cluster.cpus0.dcache.LoadLockedReq.avgMissLatency::total  6113.188360                       # average LoadLockedReq miss latency ((Tick/Count))
testsys.cpu_cluster.cpus0.dcache.LoadLockedReq.mshrHits::cpu_cluster.cpus0.data         2886                       # number of LoadLockedReq MSHR hits (Count)
testsys.cpu_cluster.cpus0.dcache.LoadLockedReq.mshrHits::total         2886                       # number of LoadLockedReq MSHR hits (Count)
testsys.cpu_cluster.cpus0.dcache.LoadLockedReq.mshrMisses::cpu_cluster.cpus0.data          310                       # number of LoadLockedReq MSHR misses (Count)
testsys.cpu_cluster.cpus0.dcache.LoadLockedReq.mshrMisses::total          310                       # number of LoadLockedReq MSHR misses (Count)
testsys.cpu_cluster.cpus0.dcache.LoadLockedReq.mshrMissLatency::cpu_cluster.cpus0.data      4708750                       # number of LoadLockedReq MSHR miss ticks (Tick)
testsys.cpu_cluster.cpus0.dcache.LoadLockedReq.mshrMissLatency::total      4708750                       # number of LoadLockedReq MSHR miss ticks (Tick)
testsys.cpu_cluster.cpus0.dcache.LoadLockedReq.mshrMissRate::cpu_cluster.cpus0.data     0.006666                       # mshr miss rate for LoadLockedReq accesses (Ratio)
testsys.cpu_cluster.cpus0.dcache.LoadLockedReq.mshrMissRate::total     0.006666                       # mshr miss rate for LoadLockedReq accesses (Ratio)
testsys.cpu_cluster.cpus0.dcache.LoadLockedReq.avgMshrMissLatency::cpu_cluster.cpus0.data 15189.516129                       # average LoadLockedReq mshr miss latency ((Tick/Count))
testsys.cpu_cluster.cpus0.dcache.LoadLockedReq.avgMshrMissLatency::total 15189.516129                       # average LoadLockedReq mshr miss latency ((Tick/Count))
testsys.cpu_cluster.cpus0.dcache.ReadReq.hits::cpu_cluster.cpus0.data     20365973                       # number of ReadReq hits (Count)
testsys.cpu_cluster.cpus0.dcache.ReadReq.hits::total     20365973                       # number of ReadReq hits (Count)
testsys.cpu_cluster.cpus0.dcache.ReadReq.misses::cpu_cluster.cpus0.data      1520211                       # number of ReadReq misses (Count)
testsys.cpu_cluster.cpus0.dcache.ReadReq.misses::total      1520211                       # number of ReadReq misses (Count)
testsys.cpu_cluster.cpus0.dcache.ReadReq.missLatency::cpu_cluster.cpus0.data  37400727750                       # number of ReadReq miss ticks (Tick)
testsys.cpu_cluster.cpus0.dcache.ReadReq.missLatency::total  37400727750                       # number of ReadReq miss ticks (Tick)
testsys.cpu_cluster.cpus0.dcache.ReadReq.accesses::cpu_cluster.cpus0.data     21886184                       # number of ReadReq accesses(hits+misses) (Count)
testsys.cpu_cluster.cpus0.dcache.ReadReq.accesses::total     21886184                       # number of ReadReq accesses(hits+misses) (Count)
testsys.cpu_cluster.cpus0.dcache.ReadReq.missRate::cpu_cluster.cpus0.data     0.069460                       # miss rate for ReadReq accesses (Ratio)
testsys.cpu_cluster.cpus0.dcache.ReadReq.missRate::total     0.069460                       # miss rate for ReadReq accesses (Ratio)
testsys.cpu_cluster.cpus0.dcache.ReadReq.avgMissLatency::cpu_cluster.cpus0.data 24602.326749                       # average ReadReq miss latency ((Tick/Count))
testsys.cpu_cluster.cpus0.dcache.ReadReq.avgMissLatency::total 24602.326749                       # average ReadReq miss latency ((Tick/Count))
testsys.cpu_cluster.cpus0.dcache.ReadReq.mshrHits::cpu_cluster.cpus0.data       509713                       # number of ReadReq MSHR hits (Count)
testsys.cpu_cluster.cpus0.dcache.ReadReq.mshrHits::total       509713                       # number of ReadReq MSHR hits (Count)
testsys.cpu_cluster.cpus0.dcache.ReadReq.mshrMisses::cpu_cluster.cpus0.data      1010498                       # number of ReadReq MSHR misses (Count)
testsys.cpu_cluster.cpus0.dcache.ReadReq.mshrMisses::total      1010498                       # number of ReadReq MSHR misses (Count)
testsys.cpu_cluster.cpus0.dcache.ReadReq.mshrUncacheable::cpu_cluster.cpus0.data         6766                       # number of ReadReq MSHR uncacheable (Count)
testsys.cpu_cluster.cpus0.dcache.ReadReq.mshrUncacheable::total         6766                       # number of ReadReq MSHR uncacheable (Count)
testsys.cpu_cluster.cpus0.dcache.ReadReq.mshrMissLatency::cpu_cluster.cpus0.data  21406621000                       # number of ReadReq MSHR miss ticks (Tick)
testsys.cpu_cluster.cpus0.dcache.ReadReq.mshrMissLatency::total  21406621000                       # number of ReadReq MSHR miss ticks (Tick)
testsys.cpu_cluster.cpus0.dcache.ReadReq.mshrUncacheableLatency::cpu_cluster.cpus0.data   1185419000                       # number of ReadReq MSHR uncacheable ticks (Tick)
testsys.cpu_cluster.cpus0.dcache.ReadReq.mshrUncacheableLatency::total   1185419000                       # number of ReadReq MSHR uncacheable ticks (Tick)
testsys.cpu_cluster.cpus0.dcache.ReadReq.mshrMissRate::cpu_cluster.cpus0.data     0.046171                       # mshr miss rate for ReadReq accesses (Ratio)
testsys.cpu_cluster.cpus0.dcache.ReadReq.mshrMissRate::total     0.046171                       # mshr miss rate for ReadReq accesses (Ratio)
testsys.cpu_cluster.cpus0.dcache.ReadReq.avgMshrMissLatency::cpu_cluster.cpus0.data 21184.228964                       # average ReadReq mshr miss latency ((Tick/Count))
testsys.cpu_cluster.cpus0.dcache.ReadReq.avgMshrMissLatency::total 21184.228964                       # average ReadReq mshr miss latency ((Tick/Count))
testsys.cpu_cluster.cpus0.dcache.ReadReq.avgMshrUncacheableLatency::cpu_cluster.cpus0.data 175202.335205                       # average ReadReq mshr uncacheable latency ((Tick/Count))
testsys.cpu_cluster.cpus0.dcache.ReadReq.avgMshrUncacheableLatency::total 175202.335205                       # average ReadReq mshr uncacheable latency ((Tick/Count))
testsys.cpu_cluster.cpus0.dcache.SoftPFExReq.hits::cpu_cluster.cpus0.data        41920                       # number of SoftPFExReq hits (Count)
testsys.cpu_cluster.cpus0.dcache.SoftPFExReq.hits::total        41920                       # number of SoftPFExReq hits (Count)
testsys.cpu_cluster.cpus0.dcache.SoftPFExReq.misses::cpu_cluster.cpus0.data       502426                       # number of SoftPFExReq misses (Count)
testsys.cpu_cluster.cpus0.dcache.SoftPFExReq.misses::total       502426                       # number of SoftPFExReq misses (Count)
testsys.cpu_cluster.cpus0.dcache.SoftPFExReq.accesses::cpu_cluster.cpus0.data       544346                       # number of SoftPFExReq accesses(hits+misses) (Count)
testsys.cpu_cluster.cpus0.dcache.SoftPFExReq.accesses::total       544346                       # number of SoftPFExReq accesses(hits+misses) (Count)
testsys.cpu_cluster.cpus0.dcache.SoftPFExReq.missRate::cpu_cluster.cpus0.data     0.922990                       # miss rate for SoftPFExReq accesses (Ratio)
testsys.cpu_cluster.cpus0.dcache.SoftPFExReq.missRate::total     0.922990                       # miss rate for SoftPFExReq accesses (Ratio)
testsys.cpu_cluster.cpus0.dcache.SoftPFExReq.mshrMisses::cpu_cluster.cpus0.data       502423                       # number of SoftPFExReq MSHR misses (Count)
testsys.cpu_cluster.cpus0.dcache.SoftPFExReq.mshrMisses::total       502423                       # number of SoftPFExReq MSHR misses (Count)
testsys.cpu_cluster.cpus0.dcache.SoftPFExReq.mshrMissLatency::cpu_cluster.cpus0.data  32028762500                       # number of SoftPFExReq MSHR miss ticks (Tick)
testsys.cpu_cluster.cpus0.dcache.SoftPFExReq.mshrMissLatency::total  32028762500                       # number of SoftPFExReq MSHR miss ticks (Tick)
testsys.cpu_cluster.cpus0.dcache.SoftPFExReq.mshrMissRate::cpu_cluster.cpus0.data     0.922985                       # mshr miss rate for SoftPFExReq accesses (Ratio)
testsys.cpu_cluster.cpus0.dcache.SoftPFExReq.mshrMissRate::total     0.922985                       # mshr miss rate for SoftPFExReq accesses (Ratio)
testsys.cpu_cluster.cpus0.dcache.SoftPFExReq.avgMshrMissLatency::cpu_cluster.cpus0.data 63748.599288                       # average SoftPFExReq mshr miss latency ((Tick/Count))
testsys.cpu_cluster.cpus0.dcache.SoftPFExReq.avgMshrMissLatency::total 63748.599288                       # average SoftPFExReq mshr miss latency ((Tick/Count))
testsys.cpu_cluster.cpus0.dcache.SoftPFReq.hits::cpu_cluster.cpus0.data         4527                       # number of SoftPFReq hits (Count)
testsys.cpu_cluster.cpus0.dcache.SoftPFReq.hits::total         4527                       # number of SoftPFReq hits (Count)
testsys.cpu_cluster.cpus0.dcache.SoftPFReq.misses::cpu_cluster.cpus0.data         6009                       # number of SoftPFReq misses (Count)
testsys.cpu_cluster.cpus0.dcache.SoftPFReq.misses::total         6009                       # number of SoftPFReq misses (Count)
testsys.cpu_cluster.cpus0.dcache.SoftPFReq.accesses::cpu_cluster.cpus0.data        10536                       # number of SoftPFReq accesses(hits+misses) (Count)
testsys.cpu_cluster.cpus0.dcache.SoftPFReq.accesses::total        10536                       # number of SoftPFReq accesses(hits+misses) (Count)
testsys.cpu_cluster.cpus0.dcache.SoftPFReq.missRate::cpu_cluster.cpus0.data     0.570330                       # miss rate for SoftPFReq accesses (Ratio)
testsys.cpu_cluster.cpus0.dcache.SoftPFReq.missRate::total     0.570330                       # miss rate for SoftPFReq accesses (Ratio)
testsys.cpu_cluster.cpus0.dcache.SoftPFReq.mshrMisses::cpu_cluster.cpus0.data         5985                       # number of SoftPFReq MSHR misses (Count)
testsys.cpu_cluster.cpus0.dcache.SoftPFReq.mshrMisses::total         5985                       # number of SoftPFReq MSHR misses (Count)
testsys.cpu_cluster.cpus0.dcache.SoftPFReq.mshrMissLatency::cpu_cluster.cpus0.data     90671500                       # number of SoftPFReq MSHR miss ticks (Tick)
testsys.cpu_cluster.cpus0.dcache.SoftPFReq.mshrMissLatency::total     90671500                       # number of SoftPFReq MSHR miss ticks (Tick)
testsys.cpu_cluster.cpus0.dcache.SoftPFReq.mshrMissRate::cpu_cluster.cpus0.data     0.568052                       # mshr miss rate for SoftPFReq accesses (Ratio)
testsys.cpu_cluster.cpus0.dcache.SoftPFReq.mshrMissRate::total     0.568052                       # mshr miss rate for SoftPFReq accesses (Ratio)
testsys.cpu_cluster.cpus0.dcache.SoftPFReq.avgMshrMissLatency::cpu_cluster.cpus0.data 15149.791145                       # average SoftPFReq mshr miss latency ((Tick/Count))
testsys.cpu_cluster.cpus0.dcache.SoftPFReq.avgMshrMissLatency::total 15149.791145                       # average SoftPFReq mshr miss latency ((Tick/Count))
testsys.cpu_cluster.cpus0.dcache.StoreCondReq.hits::cpu_cluster.cpus0.data        46384                       # number of StoreCondReq hits (Count)
testsys.cpu_cluster.cpus0.dcache.StoreCondReq.hits::total        46384                       # number of StoreCondReq hits (Count)
testsys.cpu_cluster.cpus0.dcache.StoreCondReq.misses::cpu_cluster.cpus0.data           23                       # number of StoreCondReq misses (Count)
testsys.cpu_cluster.cpus0.dcache.StoreCondReq.misses::total           23                       # number of StoreCondReq misses (Count)
testsys.cpu_cluster.cpus0.dcache.StoreCondReq.missLatency::cpu_cluster.cpus0.data        82750                       # number of StoreCondReq miss ticks (Tick)
testsys.cpu_cluster.cpus0.dcache.StoreCondReq.missLatency::total        82750                       # number of StoreCondReq miss ticks (Tick)
testsys.cpu_cluster.cpus0.dcache.StoreCondReq.accesses::cpu_cluster.cpus0.data        46407                       # number of StoreCondReq accesses(hits+misses) (Count)
testsys.cpu_cluster.cpus0.dcache.StoreCondReq.accesses::total        46407                       # number of StoreCondReq accesses(hits+misses) (Count)
testsys.cpu_cluster.cpus0.dcache.StoreCondReq.missRate::cpu_cluster.cpus0.data     0.000496                       # miss rate for StoreCondReq accesses (Ratio)
testsys.cpu_cluster.cpus0.dcache.StoreCondReq.missRate::total     0.000496                       # miss rate for StoreCondReq accesses (Ratio)
testsys.cpu_cluster.cpus0.dcache.StoreCondReq.avgMissLatency::cpu_cluster.cpus0.data  3597.826087                       # average StoreCondReq miss latency ((Tick/Count))
testsys.cpu_cluster.cpus0.dcache.StoreCondReq.avgMissLatency::total  3597.826087                       # average StoreCondReq miss latency ((Tick/Count))
testsys.cpu_cluster.cpus0.dcache.StoreCondReq.mshrMisses::cpu_cluster.cpus0.data           23                       # number of StoreCondReq MSHR misses (Count)
testsys.cpu_cluster.cpus0.dcache.StoreCondReq.mshrMisses::total           23                       # number of StoreCondReq MSHR misses (Count)
testsys.cpu_cluster.cpus0.dcache.StoreCondReq.mshrMissLatency::cpu_cluster.cpus0.data        77000                       # number of StoreCondReq MSHR miss ticks (Tick)
testsys.cpu_cluster.cpus0.dcache.StoreCondReq.mshrMissLatency::total        77000                       # number of StoreCondReq MSHR miss ticks (Tick)
testsys.cpu_cluster.cpus0.dcache.StoreCondReq.mshrMissRate::cpu_cluster.cpus0.data     0.000496                       # mshr miss rate for StoreCondReq accesses (Ratio)
testsys.cpu_cluster.cpus0.dcache.StoreCondReq.mshrMissRate::total     0.000496                       # mshr miss rate for StoreCondReq accesses (Ratio)
testsys.cpu_cluster.cpus0.dcache.StoreCondReq.avgMshrMissLatency::cpu_cluster.cpus0.data  3347.826087                       # average StoreCondReq mshr miss latency ((Tick/Count))
testsys.cpu_cluster.cpus0.dcache.StoreCondReq.avgMshrMissLatency::total  3347.826087                       # average StoreCondReq mshr miss latency ((Tick/Count))
testsys.cpu_cluster.cpus0.dcache.SwapReq.hits::cpu_cluster.cpus0.data       151643                       # number of SwapReq hits (Count)
testsys.cpu_cluster.cpus0.dcache.SwapReq.hits::total       151643                       # number of SwapReq hits (Count)
testsys.cpu_cluster.cpus0.dcache.SwapReq.misses::cpu_cluster.cpus0.data        11122                       # number of SwapReq misses (Count)
testsys.cpu_cluster.cpus0.dcache.SwapReq.misses::total        11122                       # number of SwapReq misses (Count)
testsys.cpu_cluster.cpus0.dcache.SwapReq.missLatency::cpu_cluster.cpus0.data     85744750                       # number of SwapReq miss ticks (Tick)
testsys.cpu_cluster.cpus0.dcache.SwapReq.missLatency::total     85744750                       # number of SwapReq miss ticks (Tick)
testsys.cpu_cluster.cpus0.dcache.SwapReq.accesses::cpu_cluster.cpus0.data       162765                       # number of SwapReq accesses(hits+misses) (Count)
testsys.cpu_cluster.cpus0.dcache.SwapReq.accesses::total       162765                       # number of SwapReq accesses(hits+misses) (Count)
testsys.cpu_cluster.cpus0.dcache.SwapReq.missRate::cpu_cluster.cpus0.data     0.068332                       # miss rate for SwapReq accesses (Ratio)
testsys.cpu_cluster.cpus0.dcache.SwapReq.missRate::total     0.068332                       # miss rate for SwapReq accesses (Ratio)
testsys.cpu_cluster.cpus0.dcache.SwapReq.avgMissLatency::cpu_cluster.cpus0.data  7709.472217                       # average SwapReq miss latency ((Tick/Count))
testsys.cpu_cluster.cpus0.dcache.SwapReq.avgMissLatency::total  7709.472217                       # average SwapReq miss latency ((Tick/Count))
testsys.cpu_cluster.cpus0.dcache.SwapReq.mshrHits::cpu_cluster.cpus0.data           33                       # number of SwapReq MSHR hits (Count)
testsys.cpu_cluster.cpus0.dcache.SwapReq.mshrHits::total           33                       # number of SwapReq MSHR hits (Count)
testsys.cpu_cluster.cpus0.dcache.SwapReq.mshrMisses::cpu_cluster.cpus0.data        11089                       # number of SwapReq MSHR misses (Count)
testsys.cpu_cluster.cpus0.dcache.SwapReq.mshrMisses::total        11089                       # number of SwapReq MSHR misses (Count)
testsys.cpu_cluster.cpus0.dcache.SwapReq.mshrMissLatency::cpu_cluster.cpus0.data     82618000                       # number of SwapReq MSHR miss ticks (Tick)
testsys.cpu_cluster.cpus0.dcache.SwapReq.mshrMissLatency::total     82618000                       # number of SwapReq MSHR miss ticks (Tick)
testsys.cpu_cluster.cpus0.dcache.SwapReq.mshrMissRate::cpu_cluster.cpus0.data     0.068129                       # mshr miss rate for SwapReq accesses (Ratio)
testsys.cpu_cluster.cpus0.dcache.SwapReq.mshrMissRate::total     0.068129                       # mshr miss rate for SwapReq accesses (Ratio)
testsys.cpu_cluster.cpus0.dcache.SwapReq.avgMshrMissLatency::cpu_cluster.cpus0.data  7450.446388                       # average SwapReq mshr miss latency ((Tick/Count))
testsys.cpu_cluster.cpus0.dcache.SwapReq.avgMshrMissLatency::total  7450.446388                       # average SwapReq mshr miss latency ((Tick/Count))
testsys.cpu_cluster.cpus0.dcache.WriteLineReq.hits::cpu_cluster.cpus0.data        18014                       # number of WriteLineReq hits (Count)
testsys.cpu_cluster.cpus0.dcache.WriteLineReq.hits::total        18014                       # number of WriteLineReq hits (Count)
testsys.cpu_cluster.cpus0.dcache.WriteLineReq.misses::cpu_cluster.cpus0.data       231064                       # number of WriteLineReq misses (Count)
testsys.cpu_cluster.cpus0.dcache.WriteLineReq.misses::total       231064                       # number of WriteLineReq misses (Count)
testsys.cpu_cluster.cpus0.dcache.WriteLineReq.missLatency::cpu_cluster.cpus0.data   3030638250                       # number of WriteLineReq miss ticks (Tick)
testsys.cpu_cluster.cpus0.dcache.WriteLineReq.missLatency::total   3030638250                       # number of WriteLineReq miss ticks (Tick)
testsys.cpu_cluster.cpus0.dcache.WriteLineReq.accesses::cpu_cluster.cpus0.data       249078                       # number of WriteLineReq accesses(hits+misses) (Count)
testsys.cpu_cluster.cpus0.dcache.WriteLineReq.accesses::total       249078                       # number of WriteLineReq accesses(hits+misses) (Count)
testsys.cpu_cluster.cpus0.dcache.WriteLineReq.missRate::cpu_cluster.cpus0.data     0.927677                       # miss rate for WriteLineReq accesses (Ratio)
testsys.cpu_cluster.cpus0.dcache.WriteLineReq.missRate::total     0.927677                       # miss rate for WriteLineReq accesses (Ratio)
testsys.cpu_cluster.cpus0.dcache.WriteLineReq.avgMissLatency::cpu_cluster.cpus0.data 13116.012230                       # average WriteLineReq miss latency ((Tick/Count))
testsys.cpu_cluster.cpus0.dcache.WriteLineReq.avgMissLatency::total 13116.012230                       # average WriteLineReq miss latency ((Tick/Count))
testsys.cpu_cluster.cpus0.dcache.WriteLineReq.mshrHits::cpu_cluster.cpus0.data           91                       # number of WriteLineReq MSHR hits (Count)
testsys.cpu_cluster.cpus0.dcache.WriteLineReq.mshrHits::total           91                       # number of WriteLineReq MSHR hits (Count)
testsys.cpu_cluster.cpus0.dcache.WriteLineReq.mshrMisses::cpu_cluster.cpus0.data       230973                       # number of WriteLineReq MSHR misses (Count)
testsys.cpu_cluster.cpus0.dcache.WriteLineReq.mshrMisses::total       230973                       # number of WriteLineReq MSHR misses (Count)
testsys.cpu_cluster.cpus0.dcache.WriteLineReq.mshrMissLatency::cpu_cluster.cpus0.data   2968098000                       # number of WriteLineReq MSHR miss ticks (Tick)
testsys.cpu_cluster.cpus0.dcache.WriteLineReq.mshrMissLatency::total   2968098000                       # number of WriteLineReq MSHR miss ticks (Tick)
testsys.cpu_cluster.cpus0.dcache.WriteLineReq.mshrMissRate::cpu_cluster.cpus0.data     0.927312                       # mshr miss rate for WriteLineReq accesses (Ratio)
testsys.cpu_cluster.cpus0.dcache.WriteLineReq.mshrMissRate::total     0.927312                       # mshr miss rate for WriteLineReq accesses (Ratio)
testsys.cpu_cluster.cpus0.dcache.WriteLineReq.avgMshrMissLatency::cpu_cluster.cpus0.data 12850.411087                       # average WriteLineReq mshr miss latency ((Tick/Count))
testsys.cpu_cluster.cpus0.dcache.WriteLineReq.avgMshrMissLatency::total 12850.411087                       # average WriteLineReq mshr miss latency ((Tick/Count))
testsys.cpu_cluster.cpus0.dcache.WriteReq.hits::cpu_cluster.cpus0.data     14360848                       # number of WriteReq hits (Count)
testsys.cpu_cluster.cpus0.dcache.WriteReq.hits::total     14360848                       # number of WriteReq hits (Count)
testsys.cpu_cluster.cpus0.dcache.WriteReq.misses::cpu_cluster.cpus0.data      1398419                       # number of WriteReq misses (Count)
testsys.cpu_cluster.cpus0.dcache.WriteReq.misses::total      1398419                       # number of WriteReq misses (Count)
testsys.cpu_cluster.cpus0.dcache.WriteReq.missLatency::cpu_cluster.cpus0.data  37513880500                       # number of WriteReq miss ticks (Tick)
testsys.cpu_cluster.cpus0.dcache.WriteReq.missLatency::total  37513880500                       # number of WriteReq miss ticks (Tick)
testsys.cpu_cluster.cpus0.dcache.WriteReq.accesses::cpu_cluster.cpus0.data     15759267                       # number of WriteReq accesses(hits+misses) (Count)
testsys.cpu_cluster.cpus0.dcache.WriteReq.accesses::total     15759267                       # number of WriteReq accesses(hits+misses) (Count)
testsys.cpu_cluster.cpus0.dcache.WriteReq.missRate::cpu_cluster.cpus0.data     0.088736                       # miss rate for WriteReq accesses (Ratio)
testsys.cpu_cluster.cpus0.dcache.WriteReq.missRate::total     0.088736                       # miss rate for WriteReq accesses (Ratio)
testsys.cpu_cluster.cpus0.dcache.WriteReq.avgMissLatency::cpu_cluster.cpus0.data 26825.923060                       # average WriteReq miss latency ((Tick/Count))
testsys.cpu_cluster.cpus0.dcache.WriteReq.avgMissLatency::total 26825.923060                       # average WriteReq miss latency ((Tick/Count))
testsys.cpu_cluster.cpus0.dcache.WriteReq.mshrHits::cpu_cluster.cpus0.data       628002                       # number of WriteReq MSHR hits (Count)
testsys.cpu_cluster.cpus0.dcache.WriteReq.mshrHits::total       628002                       # number of WriteReq MSHR hits (Count)
testsys.cpu_cluster.cpus0.dcache.WriteReq.mshrMisses::cpu_cluster.cpus0.data       770417                       # number of WriteReq MSHR misses (Count)
testsys.cpu_cluster.cpus0.dcache.WriteReq.mshrMisses::total       770417                       # number of WriteReq MSHR misses (Count)
testsys.cpu_cluster.cpus0.dcache.WriteReq.mshrUncacheable::cpu_cluster.cpus0.data         8905                       # number of WriteReq MSHR uncacheable (Count)
testsys.cpu_cluster.cpus0.dcache.WriteReq.mshrUncacheable::total         8905                       # number of WriteReq MSHR uncacheable (Count)
testsys.cpu_cluster.cpus0.dcache.WriteReq.mshrMissLatency::cpu_cluster.cpus0.data  20509073500                       # number of WriteReq MSHR miss ticks (Tick)
testsys.cpu_cluster.cpus0.dcache.WriteReq.mshrMissLatency::total  20509073500                       # number of WriteReq MSHR miss ticks (Tick)
testsys.cpu_cluster.cpus0.dcache.WriteReq.mshrMissRate::cpu_cluster.cpus0.data     0.048887                       # mshr miss rate for WriteReq accesses (Ratio)
testsys.cpu_cluster.cpus0.dcache.WriteReq.mshrMissRate::total     0.048887                       # mshr miss rate for WriteReq accesses (Ratio)
testsys.cpu_cluster.cpus0.dcache.WriteReq.avgMshrMissLatency::cpu_cluster.cpus0.data 26620.743701                       # average WriteReq mshr miss latency ((Tick/Count))
testsys.cpu_cluster.cpus0.dcache.WriteReq.avgMshrMissLatency::total 26620.743701                       # average WriteReq mshr miss latency ((Tick/Count))
testsys.cpu_cluster.cpus0.dcache.power_state.pwrStateResidencyTicks::UNDEFINED 485519678750                       # Cumulative time (in ticks) in various power states (Tick)
testsys.cpu_cluster.cpus0.dcache.tags.tagsInUse   468.363463                       # Average ticks per tags in use ((Tick/Count))
testsys.cpu_cluster.cpus0.dcache.tags.totalRefs     37585586                       # Total number of references to valid blocks. (Count)
testsys.cpu_cluster.cpus0.dcache.tags.sampledRefs      2464578                       # Sample count of references to valid blocks. (Count)
testsys.cpu_cluster.cpus0.dcache.tags.avgRefs    15.250313                       # Average number of references to valid blocks. ((Count/Count))
testsys.cpu_cluster.cpus0.dcache.tags.warmupTick  22293341500                       # The tick when the warmup percentage was hit. (Tick)
testsys.cpu_cluster.cpus0.dcache.tags.occupancies::cpu_cluster.cpus0.data   468.363463                       # Average occupied blocks per tick, per requestor ((Count/Tick))
testsys.cpu_cluster.cpus0.dcache.tags.avgOccs::cpu_cluster.cpus0.data     0.914772                       # Average percentage of cache occupancy ((Ratio/Tick))
testsys.cpu_cluster.cpus0.dcache.tags.avgOccs::total     0.914772                       # Average percentage of cache occupancy ((Ratio/Tick))
testsys.cpu_cluster.cpus0.dcache.tags.occupanciesTaskId::1024          404                       # Occupied blocks per task id (Count)
testsys.cpu_cluster.cpus0.dcache.tags.ageTaskId_1024::2          170                       # Occupied blocks per task id, per block age (Count)
testsys.cpu_cluster.cpus0.dcache.tags.ageTaskId_1024::3          234                       # Occupied blocks per task id, per block age (Count)
testsys.cpu_cluster.cpus0.dcache.tags.ratioOccsTaskId::1024     0.789062                       # Ratio of occupied blocks and all blocks, per task id (Ratio)
testsys.cpu_cluster.cpus0.dcache.tags.tagAccesses     80169658                       # Number of tag accesses (Count)
testsys.cpu_cluster.cpus0.dcache.tags.dataAccesses     80169658                       # Number of data accesses (Count)
testsys.cpu_cluster.cpus0.dcache.tags.power_state.pwrStateResidencyTicks::UNDEFINED 485519678750                       # Cumulative time (in ticks) in various power states (Tick)
testsys.cpu_cluster.cpus0.dtb_walker_cache.demandHits::cpu_cluster.cpus0.mmu.dtb_walker       407481                       # number of demand (read+write) hits (Count)
testsys.cpu_cluster.cpus0.dtb_walker_cache.demandHits::total       407481                       # number of demand (read+write) hits (Count)
testsys.cpu_cluster.cpus0.dtb_walker_cache.overallHits::cpu_cluster.cpus0.mmu.dtb_walker       407481                       # number of overall hits (Count)
testsys.cpu_cluster.cpus0.dtb_walker_cache.overallHits::total       407481                       # number of overall hits (Count)
testsys.cpu_cluster.cpus0.dtb_walker_cache.demandMisses::cpu_cluster.cpus0.mmu.dtb_walker       137743                       # number of demand (read+write) misses (Count)
testsys.cpu_cluster.cpus0.dtb_walker_cache.demandMisses::total       137743                       # number of demand (read+write) misses (Count)
testsys.cpu_cluster.cpus0.dtb_walker_cache.overallMisses::cpu_cluster.cpus0.mmu.dtb_walker       137743                       # number of overall misses (Count)
testsys.cpu_cluster.cpus0.dtb_walker_cache.overallMisses::total       137743                       # number of overall misses (Count)
testsys.cpu_cluster.cpus0.dtb_walker_cache.demandMissLatency::cpu_cluster.cpus0.mmu.dtb_walker   2836298757                       # number of demand (read+write) miss ticks (Tick)
testsys.cpu_cluster.cpus0.dtb_walker_cache.demandMissLatency::total   2836298757                       # number of demand (read+write) miss ticks (Tick)
testsys.cpu_cluster.cpus0.dtb_walker_cache.overallMissLatency::cpu_cluster.cpus0.mmu.dtb_walker   2836298757                       # number of overall miss ticks (Tick)
testsys.cpu_cluster.cpus0.dtb_walker_cache.overallMissLatency::total   2836298757                       # number of overall miss ticks (Tick)
testsys.cpu_cluster.cpus0.dtb_walker_cache.demandAccesses::cpu_cluster.cpus0.mmu.dtb_walker       545224                       # number of demand (read+write) accesses (Count)
testsys.cpu_cluster.cpus0.dtb_walker_cache.demandAccesses::total       545224                       # number of demand (read+write) accesses (Count)
testsys.cpu_cluster.cpus0.dtb_walker_cache.overallAccesses::cpu_cluster.cpus0.mmu.dtb_walker       545224                       # number of overall (read+write) accesses (Count)
testsys.cpu_cluster.cpus0.dtb_walker_cache.overallAccesses::total       545224                       # number of overall (read+write) accesses (Count)
testsys.cpu_cluster.cpus0.dtb_walker_cache.demandMissRate::cpu_cluster.cpus0.mmu.dtb_walker     0.252636                       # miss rate for demand accesses (Ratio)
testsys.cpu_cluster.cpus0.dtb_walker_cache.demandMissRate::total     0.252636                       # miss rate for demand accesses (Ratio)
testsys.cpu_cluster.cpus0.dtb_walker_cache.overallMissRate::cpu_cluster.cpus0.mmu.dtb_walker     0.252636                       # miss rate for overall accesses (Ratio)
testsys.cpu_cluster.cpus0.dtb_walker_cache.overallMissRate::total     0.252636                       # miss rate for overall accesses (Ratio)
testsys.cpu_cluster.cpus0.dtb_walker_cache.demandAvgMissLatency::cpu_cluster.cpus0.mmu.dtb_walker 20591.236992                       # average overall miss latency ((Cycle/Count))
testsys.cpu_cluster.cpus0.dtb_walker_cache.demandAvgMissLatency::total 20591.236992                       # average overall miss latency ((Cycle/Count))
testsys.cpu_cluster.cpus0.dtb_walker_cache.overallAvgMissLatency::cpu_cluster.cpus0.mmu.dtb_walker 20591.236992                       # average overall miss latency ((Cycle/Count))
testsys.cpu_cluster.cpus0.dtb_walker_cache.overallAvgMissLatency::total 20591.236992                       # average overall miss latency ((Cycle/Count))
testsys.cpu_cluster.cpus0.dtb_walker_cache.blockedCycles::no_mshrs            0                       # number of cycles access was blocked (Cycle)
testsys.cpu_cluster.cpus0.dtb_walker_cache.blockedCycles::no_targets            0                       # number of cycles access was blocked (Cycle)
testsys.cpu_cluster.cpus0.dtb_walker_cache.blockedCauses::no_mshrs            0                       # number of times access was blocked (Count)
testsys.cpu_cluster.cpus0.dtb_walker_cache.blockedCauses::no_targets            0                       # number of times access was blocked (Count)
testsys.cpu_cluster.cpus0.dtb_walker_cache.avgBlocked::no_mshrs          nan                       # average number of cycles each access was blocked ((Cycle/Count))
testsys.cpu_cluster.cpus0.dtb_walker_cache.avgBlocked::no_targets          nan                       # average number of cycles each access was blocked ((Cycle/Count))
testsys.cpu_cluster.cpus0.dtb_walker_cache.writebacks::writebacks        89419                       # number of writebacks (Count)
testsys.cpu_cluster.cpus0.dtb_walker_cache.writebacks::total        89419                       # number of writebacks (Count)
testsys.cpu_cluster.cpus0.dtb_walker_cache.demandMshrMisses::cpu_cluster.cpus0.mmu.dtb_walker       137743                       # number of demand (read+write) MSHR misses (Count)
testsys.cpu_cluster.cpus0.dtb_walker_cache.demandMshrMisses::total       137743                       # number of demand (read+write) MSHR misses (Count)
testsys.cpu_cluster.cpus0.dtb_walker_cache.overallMshrMisses::cpu_cluster.cpus0.mmu.dtb_walker       137743                       # number of overall MSHR misses (Count)
testsys.cpu_cluster.cpus0.dtb_walker_cache.overallMshrMisses::total       137743                       # number of overall MSHR misses (Count)
testsys.cpu_cluster.cpus0.dtb_walker_cache.demandMshrMissLatency::cpu_cluster.cpus0.mmu.dtb_walker   2698555757                       # number of demand (read+write) MSHR miss ticks (Tick)
testsys.cpu_cluster.cpus0.dtb_walker_cache.demandMshrMissLatency::total   2698555757                       # number of demand (read+write) MSHR miss ticks (Tick)
testsys.cpu_cluster.cpus0.dtb_walker_cache.overallMshrMissLatency::cpu_cluster.cpus0.mmu.dtb_walker   2698555757                       # number of overall MSHR miss ticks (Tick)
testsys.cpu_cluster.cpus0.dtb_walker_cache.overallMshrMissLatency::total   2698555757                       # number of overall MSHR miss ticks (Tick)
testsys.cpu_cluster.cpus0.dtb_walker_cache.demandMshrMissRate::cpu_cluster.cpus0.mmu.dtb_walker     0.252636                       # mshr miss ratio for demand accesses (Ratio)
testsys.cpu_cluster.cpus0.dtb_walker_cache.demandMshrMissRate::total     0.252636                       # mshr miss ratio for demand accesses (Ratio)
testsys.cpu_cluster.cpus0.dtb_walker_cache.overallMshrMissRate::cpu_cluster.cpus0.mmu.dtb_walker     0.252636                       # mshr miss ratio for overall accesses (Ratio)
testsys.cpu_cluster.cpus0.dtb_walker_cache.overallMshrMissRate::total     0.252636                       # mshr miss ratio for overall accesses (Ratio)
testsys.cpu_cluster.cpus0.dtb_walker_cache.demandAvgMshrMissLatency::cpu_cluster.cpus0.mmu.dtb_walker 19591.236992                       # average overall mshr miss latency ((Cycle/Count))
testsys.cpu_cluster.cpus0.dtb_walker_cache.demandAvgMshrMissLatency::total 19591.236992                       # average overall mshr miss latency ((Cycle/Count))
testsys.cpu_cluster.cpus0.dtb_walker_cache.overallAvgMshrMissLatency::cpu_cluster.cpus0.mmu.dtb_walker 19591.236992                       # average overall mshr miss latency ((Cycle/Count))
testsys.cpu_cluster.cpus0.dtb_walker_cache.overallAvgMshrMissLatency::total 19591.236992                       # average overall mshr miss latency ((Cycle/Count))
testsys.cpu_cluster.cpus0.dtb_walker_cache.replacements        89419                       # number of replacements (Count)
testsys.cpu_cluster.cpus0.dtb_walker_cache.ReadReq.hits::cpu_cluster.cpus0.mmu.dtb_walker       407481                       # number of ReadReq hits (Count)
testsys.cpu_cluster.cpus0.dtb_walker_cache.ReadReq.hits::total       407481                       # number of ReadReq hits (Count)
testsys.cpu_cluster.cpus0.dtb_walker_cache.ReadReq.misses::cpu_cluster.cpus0.mmu.dtb_walker       137743                       # number of ReadReq misses (Count)
testsys.cpu_cluster.cpus0.dtb_walker_cache.ReadReq.misses::total       137743                       # number of ReadReq misses (Count)
testsys.cpu_cluster.cpus0.dtb_walker_cache.ReadReq.missLatency::cpu_cluster.cpus0.mmu.dtb_walker   2836298757                       # number of ReadReq miss ticks (Tick)
testsys.cpu_cluster.cpus0.dtb_walker_cache.ReadReq.missLatency::total   2836298757                       # number of ReadReq miss ticks (Tick)
testsys.cpu_cluster.cpus0.dtb_walker_cache.ReadReq.accesses::cpu_cluster.cpus0.mmu.dtb_walker       545224                       # number of ReadReq accesses(hits+misses) (Count)
testsys.cpu_cluster.cpus0.dtb_walker_cache.ReadReq.accesses::total       545224                       # number of ReadReq accesses(hits+misses) (Count)
testsys.cpu_cluster.cpus0.dtb_walker_cache.ReadReq.missRate::cpu_cluster.cpus0.mmu.dtb_walker     0.252636                       # miss rate for ReadReq accesses (Ratio)
testsys.cpu_cluster.cpus0.dtb_walker_cache.ReadReq.missRate::total     0.252636                       # miss rate for ReadReq accesses (Ratio)
testsys.cpu_cluster.cpus0.dtb_walker_cache.ReadReq.avgMissLatency::cpu_cluster.cpus0.mmu.dtb_walker 20591.236992                       # average ReadReq miss latency ((Tick/Count))
testsys.cpu_cluster.cpus0.dtb_walker_cache.ReadReq.avgMissLatency::total 20591.236992                       # average ReadReq miss latency ((Tick/Count))
testsys.cpu_cluster.cpus0.dtb_walker_cache.ReadReq.mshrMisses::cpu_cluster.cpus0.mmu.dtb_walker       137743                       # number of ReadReq MSHR misses (Count)
testsys.cpu_cluster.cpus0.dtb_walker_cache.ReadReq.mshrMisses::total       137743                       # number of ReadReq MSHR misses (Count)
testsys.cpu_cluster.cpus0.dtb_walker_cache.ReadReq.mshrMissLatency::cpu_cluster.cpus0.mmu.dtb_walker   2698555757                       # number of ReadReq MSHR miss ticks (Tick)
testsys.cpu_cluster.cpus0.dtb_walker_cache.ReadReq.mshrMissLatency::total   2698555757                       # number of ReadReq MSHR miss ticks (Tick)
testsys.cpu_cluster.cpus0.dtb_walker_cache.ReadReq.mshrMissRate::cpu_cluster.cpus0.mmu.dtb_walker     0.252636                       # mshr miss rate for ReadReq accesses (Ratio)
testsys.cpu_cluster.cpus0.dtb_walker_cache.ReadReq.mshrMissRate::total     0.252636                       # mshr miss rate for ReadReq accesses (Ratio)
testsys.cpu_cluster.cpus0.dtb_walker_cache.ReadReq.avgMshrMissLatency::cpu_cluster.cpus0.mmu.dtb_walker 19591.236992                       # average ReadReq mshr miss latency ((Tick/Count))
testsys.cpu_cluster.cpus0.dtb_walker_cache.ReadReq.avgMshrMissLatency::total 19591.236992                       # average ReadReq mshr miss latency ((Tick/Count))
testsys.cpu_cluster.cpus0.dtb_walker_cache.power_state.pwrStateResidencyTicks::UNDEFINED 485519678750                       # Cumulative time (in ticks) in various power states (Tick)
testsys.cpu_cluster.cpus0.dtb_walker_cache.tags.tagsInUse    15.037298                       # Average ticks per tags in use ((Tick/Count))
testsys.cpu_cluster.cpus0.dtb_walker_cache.tags.totalRefs       545224                       # Total number of references to valid blocks. (Count)
testsys.cpu_cluster.cpus0.dtb_walker_cache.tags.sampledRefs       137743                       # Sample count of references to valid blocks. (Count)
testsys.cpu_cluster.cpus0.dtb_walker_cache.tags.avgRefs     3.958270                       # Average number of references to valid blocks. ((Count/Count))
testsys.cpu_cluster.cpus0.dtb_walker_cache.tags.warmupTick  22293171500                       # The tick when the warmup percentage was hit. (Tick)
testsys.cpu_cluster.cpus0.dtb_walker_cache.tags.occupancies::cpu_cluster.cpus0.mmu.dtb_walker    15.037298                       # Average occupied blocks per tick, per requestor ((Count/Tick))
testsys.cpu_cluster.cpus0.dtb_walker_cache.tags.avgOccs::cpu_cluster.cpus0.mmu.dtb_walker     0.939831                       # Average percentage of cache occupancy ((Ratio/Tick))
testsys.cpu_cluster.cpus0.dtb_walker_cache.tags.avgOccs::total     0.939831                       # Average percentage of cache occupancy ((Ratio/Tick))
testsys.cpu_cluster.cpus0.dtb_walker_cache.tags.occupanciesTaskId::1023           16                       # Occupied blocks per task id (Count)
testsys.cpu_cluster.cpus0.dtb_walker_cache.tags.ageTaskId_1023::2           16                       # Occupied blocks per task id, per block age (Count)
testsys.cpu_cluster.cpus0.dtb_walker_cache.tags.ratioOccsTaskId::1023            1                       # Ratio of occupied blocks and all blocks, per task id (Ratio)
testsys.cpu_cluster.cpus0.dtb_walker_cache.tags.tagAccesses      4499535                       # Number of tag accesses (Count)
testsys.cpu_cluster.cpus0.dtb_walker_cache.tags.dataAccesses      4499535                       # Number of data accesses (Count)
testsys.cpu_cluster.cpus0.dtb_walker_cache.tags.power_state.pwrStateResidencyTicks::UNDEFINED 485519678750                       # Cumulative time (in ticks) in various power states (Tick)
testsys.cpu_cluster.cpus0.fetch2.intInstructions    102132363                       # Number of integer instructions successfully decoded (Count)
testsys.cpu_cluster.cpus0.fetch2.fpInstructions            0                       # Number of floating point instructions successfully decoded (Count)
testsys.cpu_cluster.cpus0.fetch2.vecInstructions        32859                       # Number of SIMD instructions successfully decoded (Count)
testsys.cpu_cluster.cpus0.fetch2.loadInstructions     20084929                       # Number of memory load instructions successfully decoded (Count)
testsys.cpu_cluster.cpus0.fetch2.storeInstructions      8605342                       # Number of memory store instructions successfully decoded (Count)
testsys.cpu_cluster.cpus0.fetch2.amoInstructions       219193                       # Number of memory atomic instructions successfully decoded (Count)
testsys.cpu_cluster.cpus0.icache.demandHits::cpu_cluster.cpus0.inst     61991121                       # number of demand (read+write) hits (Count)
testsys.cpu_cluster.cpus0.icache.demandHits::total     61991121                       # number of demand (read+write) hits (Count)
testsys.cpu_cluster.cpus0.icache.overallHits::cpu_cluster.cpus0.inst     61991121                       # number of overall hits (Count)
testsys.cpu_cluster.cpus0.icache.overallHits::total     61991121                       # number of overall hits (Count)
testsys.cpu_cluster.cpus0.icache.demandMisses::cpu_cluster.cpus0.inst       733316                       # number of demand (read+write) misses (Count)
testsys.cpu_cluster.cpus0.icache.demandMisses::total       733316                       # number of demand (read+write) misses (Count)
testsys.cpu_cluster.cpus0.icache.overallMisses::cpu_cluster.cpus0.inst       733316                       # number of overall misses (Count)
testsys.cpu_cluster.cpus0.icache.overallMisses::total       733316                       # number of overall misses (Count)
testsys.cpu_cluster.cpus0.icache.demandMissLatency::cpu_cluster.cpus0.inst  17221006250                       # number of demand (read+write) miss ticks (Tick)
testsys.cpu_cluster.cpus0.icache.demandMissLatency::total  17221006250                       # number of demand (read+write) miss ticks (Tick)
testsys.cpu_cluster.cpus0.icache.overallMissLatency::cpu_cluster.cpus0.inst  17221006250                       # number of overall miss ticks (Tick)
testsys.cpu_cluster.cpus0.icache.overallMissLatency::total  17221006250                       # number of overall miss ticks (Tick)
testsys.cpu_cluster.cpus0.icache.demandAccesses::cpu_cluster.cpus0.inst     62724437                       # number of demand (read+write) accesses (Count)
testsys.cpu_cluster.cpus0.icache.demandAccesses::total     62724437                       # number of demand (read+write) accesses (Count)
testsys.cpu_cluster.cpus0.icache.overallAccesses::cpu_cluster.cpus0.inst     62724437                       # number of overall (read+write) accesses (Count)
testsys.cpu_cluster.cpus0.icache.overallAccesses::total     62724437                       # number of overall (read+write) accesses (Count)
testsys.cpu_cluster.cpus0.icache.demandMissRate::cpu_cluster.cpus0.inst     0.011691                       # miss rate for demand accesses (Ratio)
testsys.cpu_cluster.cpus0.icache.demandMissRate::total     0.011691                       # miss rate for demand accesses (Ratio)
testsys.cpu_cluster.cpus0.icache.overallMissRate::cpu_cluster.cpus0.inst     0.011691                       # miss rate for overall accesses (Ratio)
testsys.cpu_cluster.cpus0.icache.overallMissRate::total     0.011691                       # miss rate for overall accesses (Ratio)
testsys.cpu_cluster.cpus0.icache.demandAvgMissLatency::cpu_cluster.cpus0.inst 23483.745411                       # average overall miss latency ((Cycle/Count))
testsys.cpu_cluster.cpus0.icache.demandAvgMissLatency::total 23483.745411                       # average overall miss latency ((Cycle/Count))
testsys.cpu_cluster.cpus0.icache.overallAvgMissLatency::cpu_cluster.cpus0.inst 23483.745411                       # average overall miss latency ((Cycle/Count))
testsys.cpu_cluster.cpus0.icache.overallAvgMissLatency::total 23483.745411                       # average overall miss latency ((Cycle/Count))
testsys.cpu_cluster.cpus0.icache.blockedCycles::no_mshrs            0                       # number of cycles access was blocked (Cycle)
testsys.cpu_cluster.cpus0.icache.blockedCycles::no_targets            0                       # number of cycles access was blocked (Cycle)
testsys.cpu_cluster.cpus0.icache.blockedCauses::no_mshrs            0                       # number of times access was blocked (Count)
testsys.cpu_cluster.cpus0.icache.blockedCauses::no_targets            0                       # number of times access was blocked (Count)
testsys.cpu_cluster.cpus0.icache.avgBlocked::no_mshrs          nan                       # average number of cycles each access was blocked ((Cycle/Count))
testsys.cpu_cluster.cpus0.icache.avgBlocked::no_targets          nan                       # average number of cycles each access was blocked ((Cycle/Count))
testsys.cpu_cluster.cpus0.icache.writebacks::writebacks       732452                       # number of writebacks (Count)
testsys.cpu_cluster.cpus0.icache.writebacks::total       732452                       # number of writebacks (Count)
testsys.cpu_cluster.cpus0.icache.demandMshrMisses::cpu_cluster.cpus0.inst       733316                       # number of demand (read+write) MSHR misses (Count)
testsys.cpu_cluster.cpus0.icache.demandMshrMisses::total       733316                       # number of demand (read+write) MSHR misses (Count)
testsys.cpu_cluster.cpus0.icache.overallMshrMisses::cpu_cluster.cpus0.inst       733316                       # number of overall MSHR misses (Count)
testsys.cpu_cluster.cpus0.icache.overallMshrMisses::total       733316                       # number of overall MSHR misses (Count)
testsys.cpu_cluster.cpus0.icache.overallMshrUncacheable::cpu_cluster.cpus0.inst       360519                       # number of overall MSHR uncacheable misses (Count)
testsys.cpu_cluster.cpus0.icache.overallMshrUncacheable::total       360519                       # number of overall MSHR uncacheable misses (Count)
testsys.cpu_cluster.cpus0.icache.demandMshrMissLatency::cpu_cluster.cpus0.inst  17037677250                       # number of demand (read+write) MSHR miss ticks (Tick)
testsys.cpu_cluster.cpus0.icache.demandMshrMissLatency::total  17037677250                       # number of demand (read+write) MSHR miss ticks (Tick)
testsys.cpu_cluster.cpus0.icache.overallMshrMissLatency::cpu_cluster.cpus0.inst  17037677250                       # number of overall MSHR miss ticks (Tick)
testsys.cpu_cluster.cpus0.icache.overallMshrMissLatency::total  17037677250                       # number of overall MSHR miss ticks (Tick)
testsys.cpu_cluster.cpus0.icache.overallMshrUncacheableLatency::cpu_cluster.cpus0.inst  21920767500                       # number of overall MSHR uncacheable ticks (Tick)
testsys.cpu_cluster.cpus0.icache.overallMshrUncacheableLatency::total  21920767500                       # number of overall MSHR uncacheable ticks (Tick)
testsys.cpu_cluster.cpus0.icache.demandMshrMissRate::cpu_cluster.cpus0.inst     0.011691                       # mshr miss ratio for demand accesses (Ratio)
testsys.cpu_cluster.cpus0.icache.demandMshrMissRate::total     0.011691                       # mshr miss ratio for demand accesses (Ratio)
testsys.cpu_cluster.cpus0.icache.overallMshrMissRate::cpu_cluster.cpus0.inst     0.011691                       # mshr miss ratio for overall accesses (Ratio)
testsys.cpu_cluster.cpus0.icache.overallMshrMissRate::total     0.011691                       # mshr miss ratio for overall accesses (Ratio)
testsys.cpu_cluster.cpus0.icache.demandAvgMshrMissLatency::cpu_cluster.cpus0.inst 23233.745411                       # average overall mshr miss latency ((Cycle/Count))
testsys.cpu_cluster.cpus0.icache.demandAvgMshrMissLatency::total 23233.745411                       # average overall mshr miss latency ((Cycle/Count))
testsys.cpu_cluster.cpus0.icache.overallAvgMshrMissLatency::cpu_cluster.cpus0.inst 23233.745411                       # average overall mshr miss latency ((Cycle/Count))
testsys.cpu_cluster.cpus0.icache.overallAvgMshrMissLatency::total 23233.745411                       # average overall mshr miss latency ((Cycle/Count))
testsys.cpu_cluster.cpus0.icache.overallAvgMshrUncacheableLatency::cpu_cluster.cpus0.inst 60803.362652                       # average overall mshr uncacheable latency ((Cycle/Count))
testsys.cpu_cluster.cpus0.icache.overallAvgMshrUncacheableLatency::total 60803.362652                       # average overall mshr uncacheable latency ((Cycle/Count))
testsys.cpu_cluster.cpus0.icache.replacements       732452                       # number of replacements (Count)
testsys.cpu_cluster.cpus0.icache.ReadReq.hits::cpu_cluster.cpus0.inst     61991121                       # number of ReadReq hits (Count)
testsys.cpu_cluster.cpus0.icache.ReadReq.hits::total     61991121                       # number of ReadReq hits (Count)
testsys.cpu_cluster.cpus0.icache.ReadReq.misses::cpu_cluster.cpus0.inst       733316                       # number of ReadReq misses (Count)
testsys.cpu_cluster.cpus0.icache.ReadReq.misses::total       733316                       # number of ReadReq misses (Count)
testsys.cpu_cluster.cpus0.icache.ReadReq.missLatency::cpu_cluster.cpus0.inst  17221006250                       # number of ReadReq miss ticks (Tick)
testsys.cpu_cluster.cpus0.icache.ReadReq.missLatency::total  17221006250                       # number of ReadReq miss ticks (Tick)
testsys.cpu_cluster.cpus0.icache.ReadReq.accesses::cpu_cluster.cpus0.inst     62724437                       # number of ReadReq accesses(hits+misses) (Count)
testsys.cpu_cluster.cpus0.icache.ReadReq.accesses::total     62724437                       # number of ReadReq accesses(hits+misses) (Count)
testsys.cpu_cluster.cpus0.icache.ReadReq.missRate::cpu_cluster.cpus0.inst     0.011691                       # miss rate for ReadReq accesses (Ratio)
testsys.cpu_cluster.cpus0.icache.ReadReq.missRate::total     0.011691                       # miss rate for ReadReq accesses (Ratio)
testsys.cpu_cluster.cpus0.icache.ReadReq.avgMissLatency::cpu_cluster.cpus0.inst 23483.745411                       # average ReadReq miss latency ((Tick/Count))
testsys.cpu_cluster.cpus0.icache.ReadReq.avgMissLatency::total 23483.745411                       # average ReadReq miss latency ((Tick/Count))
testsys.cpu_cluster.cpus0.icache.ReadReq.mshrMisses::cpu_cluster.cpus0.inst       733316                       # number of ReadReq MSHR misses (Count)
testsys.cpu_cluster.cpus0.icache.ReadReq.mshrMisses::total       733316                       # number of ReadReq MSHR misses (Count)
testsys.cpu_cluster.cpus0.icache.ReadReq.mshrUncacheable::cpu_cluster.cpus0.inst       360519                       # number of ReadReq MSHR uncacheable (Count)
testsys.cpu_cluster.cpus0.icache.ReadReq.mshrUncacheable::total       360519                       # number of ReadReq MSHR uncacheable (Count)
testsys.cpu_cluster.cpus0.icache.ReadReq.mshrMissLatency::cpu_cluster.cpus0.inst  17037677250                       # number of ReadReq MSHR miss ticks (Tick)
testsys.cpu_cluster.cpus0.icache.ReadReq.mshrMissLatency::total  17037677250                       # number of ReadReq MSHR miss ticks (Tick)
testsys.cpu_cluster.cpus0.icache.ReadReq.mshrUncacheableLatency::cpu_cluster.cpus0.inst  21920767500                       # number of ReadReq MSHR uncacheable ticks (Tick)
testsys.cpu_cluster.cpus0.icache.ReadReq.mshrUncacheableLatency::total  21920767500                       # number of ReadReq MSHR uncacheable ticks (Tick)
testsys.cpu_cluster.cpus0.icache.ReadReq.mshrMissRate::cpu_cluster.cpus0.inst     0.011691                       # mshr miss rate for ReadReq accesses (Ratio)
testsys.cpu_cluster.cpus0.icache.ReadReq.mshrMissRate::total     0.011691                       # mshr miss rate for ReadReq accesses (Ratio)
testsys.cpu_cluster.cpus0.icache.ReadReq.avgMshrMissLatency::cpu_cluster.cpus0.inst 23233.745411                       # average ReadReq mshr miss latency ((Tick/Count))
[...]
testsys.pci_devices3.EtherDevice.coalescedTxDesc          nan                       # Average number of TxDesc's coalesced into each post ((Count/Count))
testsys.pci_devices3.EtherDevice.postedRxOrn            0                       # Number of RxOrn posted to CPU (Count)
testsys.pci_devices3.EtherDevice.totalRxOrn            0                       # Total number of RxOrn written to ISR (Count)
testsys.pci_devices3.EtherDevice.coalescedRxOrn          nan                       # Average number of RxOrn's coalesced into each post ((Count/Count))
testsys.pci_devices3.EtherDevice.coalescedTotal          nan                       # Average number of interrupts coalesced into each post ((Count/Count))
testsys.pci_devices3.EtherDevice.droppedPackets            0                       # Number of packets dropped (Count)
testsys.pci_devices3.power_state.pwrStateResidencyTicks::UNDEFINED 485519678750                       # Cumulative time (in ticks) in various power states (Tick)
testsys.pci_devices4.EtherDevice.postedInterrupts            0                       # Number of posts to CPU (Count)
testsys.pci_devices4.EtherDevice.descDmaReads            0                       # Number of descriptors the device read w/ DMA (Count)
testsys.pci_devices4.EtherDevice.descDmaWrites            0                       # Number of descriptors the device wrote w/ DMA (Count)
testsys.pci_devices4.EtherDevice.descDmaRdBytes            0                       # Number of descriptor bytes read w/ DMA (Count)
testsys.pci_devices4.EtherDevice.descDmaWrBytes            0                       # Number of descriptor bytes write w/ DMA (Count)
testsys.pci_devices4.EtherDevice.postedSwi            0                       # Number of software interrupts posted to CPU (Count)
testsys.pci_devices4.EtherDevice.totalSwi            0                       # Total number of Swi written to ISR (Count)
testsys.pci_devices4.EtherDevice.coalescedSwi          nan                       # Average number of Swi's coalesced into each post ((Count/Count))
testsys.pci_devices4.EtherDevice.postedRxIdle            0                       # Number of rxIdle interrupts posted to CPU (Count)
testsys.pci_devices4.EtherDevice.totalRxIdle            0                       # Total number of RxIdle written to ISR (Count)
testsys.pci_devices4.EtherDevice.coalescedRxIdle          nan                       # Average number of RxIdle's coalesced into each post ((Count/Count))
testsys.pci_devices4.EtherDevice.postedRxOk            0                       # Number of RxOk interrupts posted to CPU (Count)
testsys.pci_devices4.EtherDevice.totalRxOk            0                       # Total number of RxOk written to ISR (Count)
testsys.pci_devices4.EtherDevice.coalescedRxOk          nan                       # Average number of RxOk's coalesced into each post ((Count/Count))
testsys.pci_devices4.EtherDevice.postedRxDesc            0                       # Number of RxDesc interrupts posted to CPU (Count)
testsys.pci_devices4.EtherDevice.totalRxDesc            0                       # Total number of RxDesc written to ISR (Count)
testsys.pci_devices4.EtherDevice.coalescedRxDesc          nan                       # Average number of RxDesc's coalesced into each post ((Count/Count))
testsys.pci_devices4.EtherDevice.postedTxOk            0                       # Number of TxOk interrupts posted to CPU (Count)
testsys.pci_devices4.EtherDevice.totalTxOk            0                       # Total number of TxOk written to ISR (Count)
testsys.pci_devices4.EtherDevice.coalescedTxOk          nan                       # Average number of TxOk's coalesced into each post ((Count/Count))
testsys.pci_devices4.EtherDevice.postedTxIdle            0                       # Number of TxIdle interrupts posted to CPU (Count)
testsys.pci_devices4.EtherDevice.totalTxIdle            0                       # Total number of TxIdle written to ISR (Count)
testsys.pci_devices4.EtherDevice.coalescedTxIdle          nan                       # Average number of TxIdle's coalesced into each post ((Count/Count))
testsys.pci_devices4.EtherDevice.postedTxDesc            0                       # Number of TxDesc interrupts posted to CPU (Count)
testsys.pci_devices4.EtherDevice.totalTxDesc            0                       # Total number of TxDesc written to ISR (Count)
testsys.pci_devices4.EtherDevice.coalescedTxDesc          nan                       # Average number of TxDesc's coalesced into each post ((Count/Count))
testsys.pci_devices4.EtherDevice.postedRxOrn            0                       # Number of RxOrn posted to CPU (Count)
testsys.pci_devices4.EtherDevice.totalRxOrn            0                       # Total number of RxOrn written to ISR (Count)
testsys.pci_devices4.EtherDevice.coalescedRxOrn          nan                       # Average number of RxOrn's coalesced into each post ((Count/Count))
testsys.pci_devices4.EtherDevice.coalescedTotal          nan                       # Average number of interrupts coalesced into each post ((Count/Count))
testsys.pci_devices4.EtherDevice.droppedPackets            0                       # Number of packets dropped (Count)
testsys.pci_devices4.power_state.pwrStateResidencyTicks::UNDEFINED 485519678750                       # Cumulative time (in ticks) in various power states (Tick)
testsys.realview.bootmem.bytesRead::cpu_cluster.cpus0.inst          576                       # Number of bytes read from this memory (Byte)
testsys.realview.bootmem.bytesRead::cpu_cluster.cpus0.data           28                       # Number of bytes read from this memory (Byte)
testsys.realview.bootmem.bytesRead::cpu_cluster.cpus1.inst          896                       # Number of bytes read from this memory (Byte)
testsys.realview.bootmem.bytesRead::cpu_cluster.cpus1.data            8                       # Number of bytes read from this memory (Byte)
testsys.realview.bootmem.bytesRead::cpu_cluster.cpus2.inst          896                       # Number of bytes read from this memory (Byte)
testsys.realview.bootmem.bytesRead::cpu_cluster.cpus2.data            8                       # Number of bytes read from this memory (Byte)
testsys.realview.bootmem.bytesRead::cpu_cluster.cpus3.inst          896                       # Number of bytes read from this memory (Byte)
testsys.realview.bootmem.bytesRead::cpu_cluster.cpus3.data            8                       # Number of bytes read from this memory (Byte)
testsys.realview.bootmem.bytesRead::total         3316                       # Number of bytes read from this memory (Byte)
testsys.realview.bootmem.bytesInstRead::cpu_cluster.cpus0.inst          576                       # Number of instructions bytes read from this memory (Byte)
testsys.realview.bootmem.bytesInstRead::cpu_cluster.cpus1.inst          896                       # Number of instructions bytes read from this memory (Byte)
testsys.realview.bootmem.bytesInstRead::cpu_cluster.cpus2.inst          896                       # Number of instructions bytes read from this memory (Byte)
testsys.realview.bootmem.bytesInstRead::cpu_cluster.cpus3.inst          896                       # Number of instructions bytes read from this memory (Byte)
testsys.realview.bootmem.bytesInstRead::total         3264                       # Number of instructions bytes read from this memory (Byte)
testsys.realview.bootmem.numReads::cpu_cluster.cpus0.inst            9                       # Number of read requests responded to by this memory (Count)
testsys.realview.bootmem.numReads::cpu_cluster.cpus0.data            4                       # Number of read requests responded to by this memory (Count)
testsys.realview.bootmem.numReads::cpu_cluster.cpus1.inst           14                       # Number of read requests responded to by this memory (Count)
testsys.realview.bootmem.numReads::cpu_cluster.cpus1.data            1                       # Number of read requests responded to by this memory (Count)
testsys.realview.bootmem.numReads::cpu_cluster.cpus2.inst           14                       # Number of read requests responded to by this memory (Count)
testsys.realview.bootmem.numReads::cpu_cluster.cpus2.data            1                       # Number of read requests responded to by this memory (Count)
testsys.realview.bootmem.numReads::cpu_cluster.cpus3.inst           14                       # Number of read requests responded to by this memory (Count)
testsys.realview.bootmem.numReads::cpu_cluster.cpus3.data            1                       # Number of read requests responded to by this memory (Count)
testsys.realview.bootmem.numReads::total           58                       # Number of read requests responded to by this memory (Count)
testsys.realview.bootmem.bwRead::cpu_cluster.cpus0.inst         1186                       # Total read bandwidth from this memory ((Byte/Second))
testsys.realview.bootmem.bwRead::cpu_cluster.cpus0.data           58                       # Total read bandwidth from this memory ((Byte/Second))
testsys.realview.bootmem.bwRead::cpu_cluster.cpus1.inst         1845                       # Total read bandwidth from this memory ((Byte/Second))
testsys.realview.bootmem.bwRead::cpu_cluster.cpus1.data           16                       # Total read bandwidth from this memory ((Byte/Second))
testsys.realview.bootmem.bwRead::cpu_cluster.cpus2.inst         1845                       # Total read bandwidth from this memory ((Byte/Second))
testsys.realview.bootmem.bwRead::cpu_cluster.cpus2.data           16                       # Total read bandwidth from this memory ((Byte/Second))
testsys.realview.bootmem.bwRead::cpu_cluster.cpus3.inst         1845                       # Total read bandwidth from this memory ((Byte/Second))
testsys.realview.bootmem.bwRead::cpu_cluster.cpus3.data           16                       # Total read bandwidth from this memory ((Byte/Second))
testsys.realview.bootmem.bwRead::total           6830                       # Total read bandwidth from this memory ((Byte/Second))
testsys.realview.bootmem.bwInstRead::cpu_cluster.cpus0.inst         1186                       # Instruction read bandwidth from this memory ((Byte/Second))
testsys.realview.bootmem.bwInstRead::cpu_cluster.cpus1.inst         1845                       # Instruction read bandwidth from this memory ((Byte/Second))
testsys.realview.bootmem.bwInstRead::cpu_cluster.cpus2.inst         1845                       # Instruction read bandwidth from this memory ((Byte/Second))
testsys.realview.bootmem.bwInstRead::cpu_cluster.cpus3.inst         1845                       # Instruction read bandwidth from this memory ((Byte/Second))
testsys.realview.bootmem.bwInstRead::total         6723                       # Instruction read bandwidth from this memory ((Byte/Second))
testsys.realview.bootmem.bwTotal::cpu_cluster.cpus0.inst         1186                       # Total bandwidth to/from this memory ((Byte/Second))
testsys.realview.bootmem.bwTotal::cpu_cluster.cpus0.data           58                       # Total bandwidth to/from this memory ((Byte/Second))
testsys.realview.bootmem.bwTotal::cpu_cluster.cpus1.inst         1845                       # Total bandwidth to/from this memory ((Byte/Second))
testsys.realview.bootmem.bwTotal::cpu_cluster.cpus1.data           16                       # Total bandwidth to/from this memory ((Byte/Second))
testsys.realview.bootmem.bwTotal::cpu_cluster.cpus2.inst         1845                       # Total bandwidth to/from this memory ((Byte/Second))
testsys.realview.bootmem.bwTotal::cpu_cluster.cpus2.data           16                       # Total bandwidth to/from this memory ((Byte/Second))
testsys.realview.bootmem.bwTotal::cpu_cluster.cpus3.inst         1845                       # Total bandwidth to/from this memory ((Byte/Second))
testsys.realview.bootmem.bwTotal::cpu_cluster.cpus3.data           16                       # Total bandwidth to/from this memory ((Byte/Second))
testsys.realview.bootmem.bwTotal::total          6830                       # Total bandwidth to/from this memory ((Byte/Second))
testsys.realview.bootmem.power_state.pwrStateResidencyTicks::UNDEFINED 485519678750                       # Cumulative time (in ticks) in various power states (Tick)
testsys.realview.clock24MHz.clock               41667                       # Clock period in ticks (Tick)
testsys.realview.clock32KHz.clock            31250000                       # Clock period in ticks (Tick)
testsys.realview.dcc.osc_cpu.clock              16667                       # Clock period in ticks (Tick)
testsys.realview.dcc.osc_ddr.clock              25000                       # Clock period in ticks (Tick)
testsys.realview.dcc.osc_hsbm.clock             25000                       # Clock period in ticks (Tick)
testsys.realview.dcc.osc_pxl.clock              42105                       # Clock period in ticks (Tick)
testsys.realview.dcc.osc_smb.clock              20000                       # Clock period in ticks (Tick)
testsys.realview.dcc.osc_sys.clock              16667                       # Clock period in ticks (Tick)
testsys.realview.el2_watchdog.power_state.pwrStateResidencyTicks::UNDEFINED 485519678750                       # Cumulative time (in ticks) in various power states (Tick)
testsys.realview.energy_ctrl.power_state.pwrStateResidencyTicks::UNDEFINED 485519678750                       # Cumulative time (in ticks) in various power states (Tick)
testsys.realview.flash0.power_state.pwrStateResidencyTicks::UNDEFINED 485519678750                       # Cumulative time (in ticks) in various power states (Tick)
testsys.realview.flash1.power_state.pwrStateResidencyTicks::UNDEFINED 485519678750                       # Cumulative time (in ticks) in various power states (Tick)
testsys.realview.generic_timer_mem.frames0.power_state.pwrStateResidencyTicks::UNDEFINED 485519678750                       # Cumulative time (in ticks) in various power states (Tick)
testsys.realview.generic_timer_mem.frames1.power_state.pwrStateResidencyTicks::UNDEFINED 485519678750                       # Cumulative time (in ticks) in various power states (Tick)
testsys.realview.generic_timer_mem.power_state.pwrStateResidencyTicks::UNDEFINED 485519678750                       # Cumulative time (in ticks) in various power states (Tick)
testsys.realview.gic.power_state.pwrStateResidencyTicks::UNDEFINED 485519678750                       # Cumulative time (in ticks) in various power states (Tick)
testsys.realview.gicv2m.power_state.pwrStateResidencyTicks::UNDEFINED 485519678750                       # Cumulative time (in ticks) in various power states (Tick)
testsys.realview.io_voltage.voltage          3.300000                       # Voltage in Volts (Volt)
testsys.realview.kmi0.power_state.pwrStateResidencyTicks::UNDEFINED 485519678750                       # Cumulative time (in ticks) in various power states (Tick)
testsys.realview.kmi1.power_state.pwrStateResidencyTicks::UNDEFINED 485519678750                       # Cumulative time (in ticks) in various power states (Tick)
testsys.realview.mcc.osc_clcd.clock             42105                       # Clock period in ticks (Tick)
testsys.realview.mcc.osc_mcc.clock              20000                       # Clock period in ticks (Tick)
testsys.realview.mcc.osc_peripheral.clock        41667                       # Clock period in ticks (Tick)
testsys.realview.mcc.osc_system_bus.clock        41667                       # Clock period in ticks (Tick)
testsys.realview.non_trusted_sram.power_state.pwrStateResidencyTicks::UNDEFINED 485519678750                       # Cumulative time (in ticks) in various power states (Tick)
testsys.realview.pci_host.power_state.pwrStateResidencyTicks::UNDEFINED 485519678750                       # Cumulative time (in ticks) in various power states (Tick)
testsys.realview.pwr_ctrl.power_state.pwrStateResidencyTicks::UNDEFINED 485519678750                       # Cumulative time (in ticks) in various power states (Tick)
testsys.realview.realview_io.power_state.pwrStateResidencyTicks::UNDEFINED 485519678750                       # Cumulative time (in ticks) in various power states (Tick)
testsys.realview.rtc.power_state.pwrStateResidencyTicks::UNDEFINED 485519678750                       # Cumulative time (in ticks) in various power states (Tick)
testsys.realview.system_watchdog.power_state.pwrStateResidencyTicks::UNDEFINED 485519678750                       # Cumulative time (in ticks) in various power states (Tick)
testsys.realview.trusted_sram.power_state.pwrStateResidencyTicks::UNDEFINED 485519678750                       # Cumulative time (in ticks) in various power states (Tick)
testsys.realview.trusted_watchdog.power_state.pwrStateResidencyTicks::UNDEFINED 485519678750                       # Cumulative time (in ticks) in various power states (Tick)
testsys.realview.uart0.power_state.pwrStateResidencyTicks::UNDEFINED 485519678750                       # Cumulative time (in ticks) in various power states (Tick)
testsys.realview.uart1.power_state.pwrStateResidencyTicks::UNDEFINED 485519678750                       # Cumulative time (in ticks) in various power states (Tick)
testsys.realview.uart2.power_state.pwrStateResidencyTicks::UNDEFINED 485519678750                       # Cumulative time (in ticks) in various power states (Tick)
testsys.realview.uart3.power_state.pwrStateResidencyTicks::UNDEFINED 485519678750                       # Cumulative time (in ticks) in various power states (Tick)
testsys.realview.vgic.power_state.pwrStateResidencyTicks::UNDEFINED 485519678750                       # Cumulative time (in ticks) in various power states (Tick)
testsys.realview.vio0.power_state.pwrStateResidencyTicks::UNDEFINED 485519678750                       # Cumulative time (in ticks) in various power states (Tick)
testsys.realview.vio1.power_state.pwrStateResidencyTicks::UNDEFINED 485519678750                       # Cumulative time (in ticks) in various power states (Tick)
testsys.realview.vram.power_state.pwrStateResidencyTicks::UNDEFINED 485519678750                       # Cumulative time (in ticks) in various power states (Tick)
testsys.realview.watchdog.power_state.pwrStateResidencyTicks::UNDEFINED 485519678750                       # Cumulative time (in ticks) in various power states (Tick)
testsys.voltage_domain.voltage                      1                       # Voltage in Volts (Volt)
testsys.workload.inst.arm                           0                       # number of arm instructions executed (Count)
testsys.workload.inst.quiesce                    8622                       # number of quiesce instructions executed (Count)
testsys.cpu_cluster.cpus0.idleCycles        368731770                       # Total number of cycles that the object has spent stopped (Unspecified)
testsys.cpu_cluster.cpus0.tickCycles        176547651                       # Number of cycles that the object actually ticked (Unspecified)
testsys.cpu_cluster.cpus1.idleCycles        137618473                       # Total number of cycles that the object has spent stopped (Unspecified)
testsys.cpu_cluster.cpus1.tickCycles         46336153                       # Number of cycles that the object actually ticked (Unspecified)
testsys.cpu_cluster.cpus2.idleCycles         59438811                       # Total number of cycles that the object has spent stopped (Unspecified)
testsys.cpu_cluster.cpus2.tickCycles         29196092                       # Number of cycles that the object actually ticked (Unspecified)
testsys.cpu_cluster.cpus3.idleCycles         74729718                       # Total number of cycles that the object has spent stopped (Unspecified)
testsys.cpu_cluster.cpus3.tickCycles         52658077                       # Number of cycles that the object actually ticked (Unspecified)

---------- End Simulation Statistics   ----------
