
---------- Begin Simulation Statistics ----------
simSeconds                                   0.095640                       # Number of seconds simulated (Second)
simTicks                                  95639597250                       # Number of ticks simulated (Tick)
finalTick                                583878009750                       # Number of ticks from beginning of simulation (restored from checkpoints and never reset) (Tick)
simFreq                                  1000000000000                       # The number of ticks per simulated second ((Tick/Second))
hostSeconds                                   2923.34                       # Real time elapsed on the host (Second)
hostTickRate                                 32715813                       # The number of ticks simulated per host second (ticks/s) ((Tick/Second))
hostMemory                                    3068304                       # Number of bytes of host memory used (Byte)
simInsts                                    933908999                       # Number of instructions simulated (Count)
simOps                                      937302222                       # Number of ops (including micro ops) simulated (Count)
hostInstRate                                   319466                       # Simulator instruction rate (inst/s) ((Count/Second))
hostOpRate                                     320627                       # Simulator op (including micro ops) rate (op/s) ((Count/Second))
testsys.clk_domain.clock                         1000                       # Clock period in ticks (Tick)
testsys.cpu_cluster.clk_domain.clock              250                       # Clock period in ticks (Tick)
testsys.cpu_cluster.cpus0.numCycles           1309313                       # Number of cpu cycles simulated (Cycle)
testsys.cpu_cluster.cpus0.numWorkItemsStarted            0                       # Number of work items this cpu started (Count)
testsys.cpu_cluster.cpus0.numWorkItemsCompleted            0                       # Number of work items this cpu completed (Count)
testsys.cpu_cluster.cpus0.instsAdded           710345                       # Number of instructions added to the IQ (excludes non-spec) (Count)
testsys.cpu_cluster.cpus0.nonSpecInstsAdded        11877                       # Number of non-speculative instructions added to the IQ (Count)
testsys.cpu_cluster.cpus0.instsIssued          689160                       # Number of instructions issued (Count)
testsys.cpu_cluster.cpus0.squashedInstsIssued         2556                       # Number of squashed instructions issued (Count)
testsys.cpu_cluster.cpus0.squashedInstsExamined        92604                       # Number of squashed instructions iterated over during squash; mainly for profiling (Count)
testsys.cpu_cluster.cpus0.squashedOperandsExamined        67275                       # Number of squashed operands that are examined and possibly removed from graph (Count)
testsys.cpu_cluster.cpus0.squashedNonSpecRemoved         1228                       # Number of squashed non-spec instructions that were removed (Count)
testsys.cpu_cluster.cpus0.numIssuedDist::samples       875793                       # Number of insts issued each cycle (Count)
testsys.cpu_cluster.cpus0.numIssuedDist::mean     0.786898                       # Number of insts issued each cycle (Count)
testsys.cpu_cluster.cpus0.numIssuedDist::stdev     1.585520                       # Number of insts issued each cycle (Count)
testsys.cpu_cluster.cpus0.numIssuedDist::underflows            0      0.00%      0.00% # Number of insts issued each cycle (Count)
testsys.cpu_cluster.cpus0.numIssuedDist::0       627104     71.60%     71.60% # Number of insts issued each cycle (Count)
testsys.cpu_cluster.cpus0.numIssuedDist::1        90158     10.29%     81.90% # Number of insts issued each cycle (Count)
testsys.cpu_cluster.cpus0.numIssuedDist::2        42607      4.86%     86.76% # Number of insts issued each cycle (Count)
testsys.cpu_cluster.cpus0.numIssuedDist::3        35555      4.06%     90.82% # Number of insts issued each cycle (Count)
testsys.cpu_cluster.cpus0.numIssuedDist::4        32328      3.69%     94.51% # Number of insts issued each cycle (Count)
testsys.cpu_cluster.cpus0.numIssuedDist::5        23732      2.71%     97.22% # Number of insts issued each cycle (Count)
testsys.cpu_cluster.cpus0.numIssuedDist::6        13419      1.53%     98.76% # Number of insts issued each cycle (Count)
testsys.cpu_cluster.cpus0.numIssuedDist::7         8483      0.97%     99.73% # Number of insts issued each cycle (Count)
testsys.cpu_cluster.cpus0.numIssuedDist::8         2407      0.27%    100.00% # Number of insts issued each cycle (Count)
testsys.cpu_cluster.cpus0.numIssuedDist::overflows            0      0.00%    100.00% # Number of insts issued each cycle (Count)
testsys.cpu_cluster.cpus0.numIssuedDist::min_value            0                       # Number of insts issued each cycle (Count)
testsys.cpu_cluster.cpus0.numIssuedDist::max_value            8                       # Number of insts issued each cycle (Count)
testsys.cpu_cluster.cpus0.numIssuedDist::total       875793                       # Number of insts issued each cycle (Count)
testsys.cpu_cluster.cpus0.statFuBusy::No_OpClass            0      0.00%      0.00% # attempts to use FU when none available (Count)
testsys.cpu_cluster.cpus0.statFuBusy::IntAlu         5987     36.87%     36.87% # attempts to use FU when none available (Count)
testsys.cpu_cluster.cpus0.statFuBusy::IntMult          459      2.83%     39.70% # attempts to use FU when none available (Count)
testsys.cpu_cluster.cpus0.statFuBusy::IntDiv          741      4.56%     44.26% # attempts to use FU when none available (Count)
testsys.cpu_cluster.cpus0.statFuBusy::FloatAdd            0      0.00%     44.26% # attempts to use FU when none available (Count)
testsys.cpu_cluster.cpus0.statFuBusy::FloatCmp            0      0.00%     44.26% # attempts to use FU when none available (Count)
testsys.cpu_cluster.cpus0.statFuBusy::FloatCvt            0      0.00%     44.26% # attempts to use FU when none available (Count)
testsys.cpu_cluster.cpus0.statFuBusy::FloatMult            0      0.00%     44.26% # attempts to use FU when none available (Count)
testsys.cpu_cluster.cpus0.statFuBusy::FloatMultAcc            0      0.00%     44.26% # attempts to use FU when none available (Count)
testsys.cpu_cluster.cpus0.statFuBusy::FloatDiv            0      0.00%     44.26% # attempts to use FU when none available (Count)
testsys.cpu_cluster.cpus0.statFuBusy::FloatMisc            0      0.00%     44.26% # attempts to use FU when none available (Count)
testsys.cpu_cluster.cpus0.statFuBusy::FloatSqrt            0      0.00%     44.26% # attempts to use FU when none available (Count)
testsys.cpu_cluster.cpus0.statFuBusy::SimdAdd            0      0.00%     44.26% # attempts to use FU when none available (Count)
testsys.cpu_cluster.cpus0.statFuBusy::SimdAddAcc            0      0.00%     44.26% # attempts to use FU when none available (Count)
testsys.cpu_cluster.cpus0.statFuBusy::SimdAlu            0      0.00%     44.26% # attempts to use FU when none available (Count)
testsys.cpu_cluster.cpus0.statFuBusy::SimdCmp            0      0.00%     44.26% # attempts to use FU when none available (Count)
testsys.cpu_cluster.cpus0.statFuBusy::SimdCvt            0      0.00%     44.26% # attempts to use FU when none available (Count)
testsys.cpu_cluster.cpus0.statFuBusy::SimdMisc            0      0.00%     44.26% # attempts to use FU when none available (Count)
testsys.cpu_cluster.cpus0.statFuBusy::SimdMult            0      0.00%     44.26% # attempts to use FU when none available (Count)
testsys.cpu_cluster.cpus0.statFuBusy::SimdMultAcc            0      0.00%     44.26% # attempts to use FU when none available (Count)
testsys.cpu_cluster.cpus0.statFuBusy::SimdShift            0      0.00%     44.26% # attempts to use FU when none available (Count)
testsys.cpu_cluster.cpus0.statFuBusy::SimdShiftAcc            0      0.00%     44.26% # attempts to use FU when none available (Count)
testsys.cpu_cluster.cpus0.statFuBusy::SimdDiv            0      0.00%     44.26% # attempts to use FU when none available (Count)
testsys.cpu_cluster.cpus0.statFuBusy::SimdSqrt            0      0.00%     44.26% # attempts to use FU when none available (Count)
testsys.cpu_cluster.cpus0.statFuBusy::SimdFloatAdd            0      0.00%     44.26% # attempts to use FU when none available (Count)
testsys.cpu_cluster.cpus0.statFuBusy::SimdFloatAlu            0      0.00%     44.26% # attempts to use FU when none available (Count)
testsys.cpu_cluster.cpus0.statFuBusy::SimdFloatCmp            0      0.00%     44.26% # attempts to use FU when none available (Count)
testsys.cpu_cluster.cpus0.statFuBusy::SimdFloatCvt            0      0.00%     44.26% # attempts to use FU when none available (Count)
testsys.cpu_cluster.cpus0.statFuBusy::SimdFloatDiv            0      0.00%     44.26% # attempts to use FU when none available (Count)
testsys.cpu_cluster.cpus0.statFuBusy::SimdFloatMisc            0      0.00%     44.26% # attempts to use FU when none available (Count)
testsys.cpu_cluster.cpus0.statFuBusy::SimdFloatMult            0      0.00%     44.26% # attempts to use FU when none available (Count)
testsys.cpu_cluster.cpus0.statFuBusy::SimdFloatMultAcc            0      0.00%     44.26% # attempts to use FU when none available (Count)
testsys.cpu_cluster.cpus0.statFuBusy::SimdFloatSqrt            0      0.00%     44.26% # attempts to use FU when none available (Count)
testsys.cpu_cluster.cpus0.statFuBusy::SimdReduceAdd            0      0.00%     44.26% # attempts to use FU when none available (Count)
testsys.cpu_cluster.cpus0.statFuBusy::SimdReduceAlu            0      0.00%     44.26% # attempts to use FU when none available (Count)
testsys.cpu_cluster.cpus0.statFuBusy::SimdReduceCmp            0      0.00%     44.26% # attempts to use FU when none available (Count)
testsys.cpu_cluster.cpus0.statFuBusy::SimdFloatReduceAdd            0      0.00%     44.26% # attempts to use FU when none available (Count)
testsys.cpu_cluster.cpus0.statFuBusy::SimdFloatReduceCmp            0      0.00%     44.26% # attempts to use FU when none available (Count)
testsys.cpu_cluster.cpus0.statFuBusy::SimdAes            0      0.00%     44.26% # attempts to use FU when none available (Count)
testsys.cpu_cluster.cpus0.statFuBusy::SimdAesMix            0      0.00%     44.26% # attempts to use FU when none available (Count)
testsys.cpu_cluster.cpus0.statFuBusy::SimdSha1Hash            0      0.00%     44.26% # attempts to use FU when none available (Count)
testsys.cpu_cluster.cpus0.statFuBusy::SimdSha1Hash2            0      0.00%     44.26% # attempts to use FU when none available (Count)
testsys.cpu_cluster.cpus0.statFuBusy::SimdSha256Hash            0      0.00%     44.26% # attempts to use FU when none available (Count)
testsys.cpu_cluster.cpus0.statFuBusy::SimdSha256Hash2            0      0.00%     44.26% # attempts to use FU when none available (Count)
testsys.cpu_cluster.cpus0.statFuBusy::SimdShaSigma2            0      0.00%     44.26% # attempts to use FU when none available (Count)
testsys.cpu_cluster.cpus0.statFuBusy::SimdShaSigma3            0      0.00%     44.26% # attempts to use FU when none available (Count)
testsys.cpu_cluster.cpus0.statFuBusy::SimdPredAlu            0      0.00%     44.26% # attempts to use FU when none available (Count)
testsys.cpu_cluster.cpus0.statFuBusy::MemRead         5113     31.49%     75.75% # attempts to use FU when none available (Count)
testsys.cpu_cluster.cpus0.statFuBusy::MemWrite         3937     24.25%    100.00% # attempts to use FU when none available (Count)
testsys.cpu_cluster.cpus0.statFuBusy::FloatMemRead            0      0.00%    100.00% # attempts to use FU when none available (Count)
testsys.cpu_cluster.cpus0.statFuBusy::FloatMemWrite            0      0.00%    100.00% # attempts to use FU when none available (Count)
testsys.cpu_cluster.cpus0.statFuBusy::IprAccess            0      0.00%    100.00% # attempts to use FU when none available (Count)
testsys.cpu_cluster.cpus0.statFuBusy::InstPrefetch            0      0.00%    100.00% # attempts to use FU when none available (Count)
testsys.cpu_cluster.cpus0.statIssuedInstType_0::No_OpClass          110      0.02%      0.02% # Number of instructions issued per FU type, per thread (Count)
testsys.cpu_cluster.cpus0.statIssuedInstType_0::IntAlu       508648     73.81%     73.82% # Number of instructions issued per FU type, per thread (Count)
testsys.cpu_cluster.cpus0.statIssuedInstType_0::IntMult         1604      0.23%     74.06% # Number of instructions issued per FU type, per thread (Count)
testsys.cpu_cluster.cpus0.statIssuedInstType_0::IntDiv          329      0.05%     74.10% # Number of instructions issued per FU type, per thread (Count)
testsys.cpu_cluster.cpus0.statIssuedInstType_0::FloatAdd            0      0.00%     74.10% # Number of instructions issued per FU type, per thread (Count)
testsys.cpu_cluster.cpus0.statIssuedInstType_0::FloatCmp            0      0.00%     74.10% # Number of instructions issued per FU type, per thread (Count)
testsys.cpu_cluster.cpus0.statIssuedInstType_0::FloatCvt            0      0.00%     74.10% # Number of instructions issued per FU type, per thread (Count)
testsys.cpu_cluster.cpus0.statIssuedInstType_0::FloatMult            0      0.00%     74.10% # Number of instructions issued per FU type, per thread (Count)
testsys.cpu_cluster.cpus0.statIssuedInstType_0::FloatMultAcc            0      0.00%     74.10% # Number of instructions issued per FU type, per thread (Count)
testsys.cpu_cluster.cpus0.statIssuedInstType_0::FloatDiv            0      0.00%     74.10% # Number of instructions issued per FU type, per thread (Count)
testsys.cpu_cluster.cpus0.statIssuedInstType_0::FloatMisc            0      0.00%     74.10% # Number of instructions issued per FU type, per thread (Count)
testsys.cpu_cluster.cpus0.statIssuedInstType_0::FloatSqrt            0      0.00%     74.10% # Number of instructions issued per FU type, per thread (Count)
testsys.cpu_cluster.cpus0.statIssuedInstType_0::SimdAdd            0      0.00%     74.10% # Number of instructions issued per FU type, per thread (Count)
testsys.cpu_cluster.cpus0.statIssuedInstType_0::SimdAddAcc            0      0.00%     74.10% # Number of instructions issued per FU type, per thread (Count)
testsys.cpu_cluster.cpus0.statIssuedInstType_0::SimdAlu            0      0.00%     74.10% # Number of instructions issued per FU type, per thread (Count)
testsys.cpu_cluster.cpus0.statIssuedInstType_0::SimdCmp            0      0.00%     74.10% # Number of instructions issued per FU type, per thread (Count)
testsys.cpu_cluster.cpus0.statIssuedInstType_0::SimdCvt            0      0.00%     74.10% # Number of instructions issued per FU type, per thread (Count)
testsys.cpu_cluster.cpus0.statIssuedInstType_0::SimdMisc            0      0.00%     74.10% # Number of instructions issued per FU type, per thread (Count)
testsys.cpu_cluster.cpus0.statIssuedInstType_0::SimdMult            0      0.00%     74.10% # Number of instructions issued per FU type, per thread (Count)
testsys.cpu_cluster.cpus0.statIssuedInstType_0::SimdMultAcc            0      0.00%     74.10% # Number of instructions issued per FU type, per thread (Count)
testsys.cpu_cluster.cpus0.statIssuedInstType_0::SimdShift            0      0.00%     74.10% # Number of instructions issued per FU type, per thread (Count)
testsys.cpu_cluster.cpus0.statIssuedInstType_0::SimdShiftAcc            0      0.00%     74.10% # Number of instructions issued per FU type, per thread (Count)
testsys.cpu_cluster.cpus0.statIssuedInstType_0::SimdDiv            0      0.00%     74.10% # Number of instructions issued per FU type, per thread (Count)
testsys.cpu_cluster.cpus0.statIssuedInstType_0::SimdSqrt            0      0.00%     74.10% # Number of instructions issued per FU type, per thread (Count)
testsys.cpu_cluster.cpus0.statIssuedInstType_0::SimdFloatAdd            0      0.00%     74.10% # Number of instructions issued per FU type, per thread (Count)
testsys.cpu_cluster.cpus0.statIssuedInstType_0::SimdFloatAlu            0      0.00%     74.10% # Number of instructions issued per FU type, per thread (Count)
testsys.cpu_cluster.cpus0.statIssuedInstType_0::SimdFloatCmp            0      0.00%     74.10% # Number of instructions issued per FU type, per thread (Count)
testsys.cpu_cluster.cpus0.statIssuedInstType_0::SimdFloatCvt            0      0.00%     74.10% # Number of instructions issued per FU type, per thread (Count)
testsys.cpu_cluster.cpus0.statIssuedInstType_0::SimdFloatDiv            0      0.00%     74.10% # Number of instructions issued per FU type, per thread (Count)
testsys.cpu_cluster.cpus0.statIssuedInstType_0::SimdFloatMisc            0      0.00%     74.10% # Number of instructions issued per FU type, per thread (Count)
testsys.cpu_cluster.cpus0.statIssuedInstType_0::SimdFloatMult            0      0.00%     74.10% # Number of instructions issued per FU type, per thread (Count)
testsys.cpu_cluster.cpus0.statIssuedInstType_0::SimdFloatMultAcc            0      0.00%     74.10% # Number of instructions issued per FU type, per thread (Count)
testsys.cpu_cluster.cpus0.statIssuedInstType_0::SimdFloatSqrt            0      0.00%     74.10% # Number of instructions issued per FU type, per thread (Count)
testsys.cpu_cluster.cpus0.statIssuedInstType_0::SimdReduceAdd            0      0.00%     74.10% # Number of instructions issued per FU type, per thread (Count)
testsys.cpu_cluster.cpus0.statIssuedInstType_0::SimdReduceAlu            0      0.00%     74.10% # Number of instructions issued per FU type, per thread (Count)
testsys.cpu_cluster.cpus0.statIssuedInstType_0::SimdReduceCmp            0      0.00%     74.10% # Number of instructions issued per FU type, per thread (Count)
testsys.cpu_cluster.cpus0.statIssuedInstType_0::SimdFloatReduceAdd            0      0.00%     74.10% # Number of instructions issued per FU type, per thread (Count)
testsys.cpu_cluster.cpus0.statIssuedInstType_0::SimdFloatReduceCmp            0      0.00%     74.10% # Number of instructions issued per FU type, per thread (Count)
testsys.cpu_cluster.cpus0.statIssuedInstType_0::SimdAes            0      0.00%     74.10% # Number of instructions issued per FU type, per thread (Count)
testsys.cpu_cluster.cpus0.statIssuedInstType_0::SimdAesMix            0      0.00%     74.10% # Number of instructions issued per FU type, per thread (Count)
testsys.cpu_cluster.cpus0.statIssuedInstType_0::SimdSha1Hash            0      0.00%     74.10% # Number of instructions issued per FU type, per thread (Count)
testsys.cpu_cluster.cpus0.statIssuedInstType_0::SimdSha1Hash2            0      0.00%     74.10% # Number of instructions issued per FU type, per thread (Count)
testsys.cpu_cluster.cpus0.statIssuedInstType_0::SimdSha256Hash            0      0.00%     74.10% # Number of instructions issued per FU type, per thread (Count)
testsys.cpu_cluster.cpus0.statIssuedInstType_0::SimdSha256Hash2            0      0.00%     74.10% # Number of instructions issued per FU type, per thread (Count)
testsys.cpu_cluster.cpus0.statIssuedInstType_0::SimdShaSigma2            0      0.00%     74.10% # Number of instructions issued per FU type, per thread (Count)
testsys.cpu_cluster.cpus0.statIssuedInstType_0::SimdShaSigma3            0      0.00%     74.10% # Number of instructions issued per FU type, per thread (Count)
testsys.cpu_cluster.cpus0.statIssuedInstType_0::SimdPredAlu            0      0.00%     74.10% # Number of instructions issued per FU type, per thread (Count)
testsys.cpu_cluster.cpus0.statIssuedInstType_0::MemRead        98835     14.34%     88.44% # Number of instructions issued per FU type, per thread (Count)
testsys.cpu_cluster.cpus0.statIssuedInstType_0::MemWrite        79634     11.56%    100.00% # Number of instructions issued per FU type, per thread (Count)
testsys.cpu_cluster.cpus0.statIssuedInstType_0::FloatMemRead            0      0.00%    100.00% # Number of instructions issued per FU type, per thread (Count)
testsys.cpu_cluster.cpus0.statIssuedInstType_0::FloatMemWrite            0      0.00%    100.00% # Number of instructions issued per FU type, per thread (Count)
testsys.cpu_cluster.cpus0.statIssuedInstType_0::IprAccess            0      0.00%    100.00% # Number of instructions issued per FU type, per thread (Count)
testsys.cpu_cluster.cpus0.statIssuedInstType_0::InstPrefetch            0      0.00%    100.00% # Number of instructions issued per FU type, per thread (Count)
testsys.cpu_cluster.cpus0.statIssuedInstType_0::total       689160                       # Number of instructions issued per FU type, per thread (Count)
testsys.cpu_cluster.cpus0.issueRate          0.526352                       # Inst issue rate ((Count/Cycle))
testsys.cpu_cluster.cpus0.fuBusy                16237                       # FU busy when requested (Count)
testsys.cpu_cluster.cpus0.fuBusyRate         0.023561                       # FU busy rate (busy events/executed inst) ((Count/Count))
testsys.cpu_cluster.cpus0.intInstQueueReads      2272906                       # Number of integer instruction queue reads (Count)
testsys.cpu_cluster.cpus0.intInstQueueWrites       815433                       # Number of integer instruction queue writes (Count)
testsys.cpu_cluster.cpus0.intInstQueueWakeupAccesses       679484                       # Number of integer instruction queue wakeup accesses (Count)
testsys.cpu_cluster.cpus0.fpInstQueueReads            0                       # Number of floating instruction queue reads (Count)
testsys.cpu_cluster.cpus0.fpInstQueueWrites            0                       # Number of floating instruction queue writes (Count)
testsys.cpu_cluster.cpus0.fpInstQueueWakeupAccesses            0                       # Number of floating instruction queue wakeup accesses (Count)
testsys.cpu_cluster.cpus0.vecInstQueueReads            0                       # Number of vector instruction queue reads (Count)
testsys.cpu_cluster.cpus0.vecInstQueueWrites            0                       # Number of vector instruction queue writes (Count)
testsys.cpu_cluster.cpus0.vecInstQueueWakeupAccesses            0                       # Number of vector instruction queue wakeup accesses (Count)
testsys.cpu_cluster.cpus0.intAluAccesses       705287                       # Number of integer alu accesses (Count)
testsys.cpu_cluster.cpus0.fpAluAccesses             0                       # Number of floating point alu accesses (Count)
testsys.cpu_cluster.cpus0.vecAluAccesses            0                       # Number of vector alu accesses (Count)
testsys.cpu_cluster.cpus0.idleCycles                0                       # Number of cycles IEW is idle (Cycle)
testsys.cpu_cluster.cpus0.squashCycles           3545                       # Number of cycles IEW is squashing (Cycle)
testsys.cpu_cluster.cpus0.blockCycles           49522                       # Number of cycles IEW is blocking (Cycle)
testsys.cpu_cluster.cpus0.unblockCycles          2241                       # Number of cycles IEW is unblocking (Cycle)
testsys.cpu_cluster.cpus0.dispatchedInsts       731203                       # Number of instructions dispatched to IQ (Count)
testsys.cpu_cluster.cpus0.dispSquashedInsts         1764                       # Number of squashed instructions skipped by dispatch (Count)
testsys.cpu_cluster.cpus0.dispLoadInsts        103035                       # Number of dispatched load instructions (Count)
testsys.cpu_cluster.cpus0.dispStoreInsts        83460                       # Number of dispatched store instructions (Count)
testsys.cpu_cluster.cpus0.dispNonSpecInsts         7193                       # Number of dispatched non-speculative instructions (Count)
testsys.cpu_cluster.cpus0.iqFullEvents            354                       # Number of times the IQ has become full, causing a stall (Count)
testsys.cpu_cluster.cpus0.lsqFullEvents          1727                       # Number of times the LSQ has become full, causing a stall (Count)
testsys.cpu_cluster.cpus0.memOrderViolationEvents          632                       # Number of memory order violations (Count)
testsys.cpu_cluster.cpus0.predictedTakenIncorrect          777                       # Number of branches that were predicted taken incorrectly (Count)
testsys.cpu_cluster.cpus0.predictedNotTakenIncorrect         1990                       # Number of branches that were predicted not taken incorrectly (Count)
testsys.cpu_cluster.cpus0.branchMispredicts         2767                       # Number of branch mispredicts detected at execute (Count)
testsys.cpu_cluster.cpus0.numInsts             683948                       # Number of executed instructions (Count)
testsys.cpu_cluster.cpus0.numLoadInsts          96539                       # Number of load instructions executed (Count)
testsys.cpu_cluster.cpus0.numSquashedInsts         3623                       # Number of squashed instructions skipped in execute (Count)
testsys.cpu_cluster.cpus0.numSwp                    0                       # Number of swp insts executed (Count)
testsys.cpu_cluster.cpus0.numNop                 8981                       # Number of nop insts executed (Count)
testsys.cpu_cluster.cpus0.numRefs              175169                       # Number of memory reference insts executed (Count)
testsys.cpu_cluster.cpus0.numBranches          128501                       # Number of branches executed (Count)
testsys.cpu_cluster.cpus0.numStoreInsts         78630                       # Number of stores executed (Count)
testsys.cpu_cluster.cpus0.numRate            0.522372                       # Inst execution rate ((Count/Cycle))
testsys.cpu_cluster.cpus0.instsToCommit        680382                       # Cumulative count of insts sent to commit (Count)
testsys.cpu_cluster.cpus0.writebackCount       679484                       # Cumulative count of insts written-back (Count)
testsys.cpu_cluster.cpus0.producerInst         374746                       # Number of instructions producing a value (Count)
testsys.cpu_cluster.cpus0.consumerInst         605794                       # Number of instructions consuming a value (Count)
testsys.cpu_cluster.cpus0.wbRate             0.518962                       # Insts written-back per cycle ((Count/Cycle))
testsys.cpu_cluster.cpus0.wbFanout           0.618603                       # Average fanout of values written-back ((Count/Count))
testsys.cpu_cluster.cpus0.timesIdled             2586                       # Number of times that the entire CPU went into an idle state and unscheduled itself (Count)
testsys.cpu_cluster.cpus0.idleCycles           433520                       # Total number of cycles that the CPU has spent unscheduled due to idling (Cycle)
testsys.cpu_cluster.cpus0.quiesceCycles     380848420                       # Total number of cycles that CPU has spent quiesced or waiting for an interrupt (Cycle)
testsys.cpu_cluster.cpus0.committedInsts       547352                       # Number of Instructions Simulated (Count)
testsys.cpu_cluster.cpus0.committedOps         629618                       # Number of Ops (including micro ops) Simulated (Count)
testsys.cpu_cluster.cpus0.cpi                2.392086                       # CPI: Cycles Per Instruction ((Cycle/Count))
testsys.cpu_cluster.cpus0.totalCpi           2.392086                       # CPI: Total CPI of All Threads ((Cycle/Count))
testsys.cpu_cluster.cpus0.ipc                0.418045                       # IPC: Instructions Per Cycle ((Count/Cycle))
testsys.cpu_cluster.cpus0.totalIpc           0.418045                       # IPC: Total IPC of All Threads ((Count/Cycle))
testsys.cpu_cluster.cpus0.intRegfileReads       782663                       # Number of integer regfile reads (Count)
testsys.cpu_cluster.cpus0.intRegfileWrites       515330                       # Number of integer regfile writes (Count)
testsys.cpu_cluster.cpus0.ccRegfileReads       144504                       # number of cc regfile reads (Count)
testsys.cpu_cluster.cpus0.ccRegfileWrites       142161                       # number of cc regfile writes (Count)
testsys.cpu_cluster.cpus0.miscRegfileReads      4636078                       # number of misc regfile reads (Count)
testsys.cpu_cluster.cpus0.miscRegfileWrites         8583                       # number of misc regfile writes (Count)
testsys.cpu_cluster.cpus0.MemDepUnit__0.insertedLoads       103035                       # Number of loads inserted to the mem dependence unit. (Count)
testsys.cpu_cluster.cpus0.MemDepUnit__0.insertedStores        83460                       # Number of stores inserted to the mem dependence unit. (Count)
testsys.cpu_cluster.cpus0.MemDepUnit__0.conflictingLoads        30829                       # Number of conflicting loads. (Count)
testsys.cpu_cluster.cpus0.MemDepUnit__0.conflictingStores        24377                       # Number of conflicting stores. (Count)
testsys.cpu_cluster.cpus0.MemDepUnit__1.insertedLoads            0                       # Number of loads inserted to the mem dependence unit. (Count)
testsys.cpu_cluster.cpus0.MemDepUnit__1.insertedStores            0                       # Number of stores inserted to the mem dependence unit. (Count)
testsys.cpu_cluster.cpus0.MemDepUnit__1.conflictingLoads            0                       # Number of conflicting loads. (Count)
testsys.cpu_cluster.cpus0.MemDepUnit__1.conflictingStores            0                       # Number of conflicting stores. (Count)
testsys.cpu_cluster.cpus0.MemDepUnit__2.insertedLoads            0                       # Number of loads inserted to the mem dependence unit. (Count)
testsys.cpu_cluster.cpus0.MemDepUnit__2.insertedStores            0                       # Number of stores inserted to the mem dependence unit. (Count)
testsys.cpu_cluster.cpus0.MemDepUnit__2.conflictingLoads            0                       # Number of conflicting loads. (Count)
testsys.cpu_cluster.cpus0.MemDepUnit__2.conflictingStores            0                       # Number of conflicting stores. (Count)
testsys.cpu_cluster.cpus0.MemDepUnit__3.insertedLoads            0                       # Number of loads inserted to the mem dependence unit. (Count)
testsys.cpu_cluster.cpus0.MemDepUnit__3.insertedStores            0                       # Number of stores inserted to the mem dependence unit. (Count)
testsys.cpu_cluster.cpus0.MemDepUnit__3.conflictingLoads            0                       # Number of conflicting loads. (Count)
testsys.cpu_cluster.cpus0.MemDepUnit__3.conflictingStores            0                       # Number of conflicting stores. (Count)
testsys.cpu_cluster.cpus0.branchPred.lookups       156074                       # Number of BP lookups (Count)
testsys.cpu_cluster.cpus0.branchPred.condPredicted        86041                       # Number of conditional branches predicted (Count)
testsys.cpu_cluster.cpus0.branchPred.condIncorrect         3291                       # Number of conditional branches incorrect (Count)
testsys.cpu_cluster.cpus0.branchPred.BTBLookups        65417                       # Number of BTB lookups (Count)
testsys.cpu_cluster.cpus0.branchPred.BTBHits        62271                       # Number of BTB hits (Count)
testsys.cpu_cluster.cpus0.branchPred.BTBHitRatio     0.951909                       # BTB Hit Ratio (Ratio)
testsys.cpu_cluster.cpus0.branchPred.RASUsed        31179                       # Number of times the RAS was used to get a target. (Count)
testsys.cpu_cluster.cpus0.branchPred.RASIncorrect           87                       # Number of incorrect RAS predictions. (Count)
testsys.cpu_cluster.cpus0.branchPred.indirectLookups         1365                       # Number of indirect predictor lookups. (Count)
testsys.cpu_cluster.cpus0.branchPred.indirectHits          856                       # Number of indirect target hits. (Count)
testsys.cpu_cluster.cpus0.branchPred.indirectMisses          509                       # Number of indirect misses. (Count)
testsys.cpu_cluster.cpus0.branchPred.indirectMispredicted          204                       # Number of mispredicted indirect branches. (Count)
testsys.cpu_cluster.cpus0.commit.commitSquashedInsts        93653                       # The number of squashed insts skipped by commit (Count)
testsys.cpu_cluster.cpus0.commit.commitNonSpecStalls        10649                       # The number of times commit has been forced to stall to communicate backwards (Count)
testsys.cpu_cluster.cpus0.commit.branchMispredicts         2489                       # The number of times a branch was mispredicted (Count)
testsys.cpu_cluster.cpus0.commit.numCommittedDist::samples       860522                       # Number of insts commited each cycle (Count)
testsys.cpu_cluster.cpus0.commit.numCommittedDist::mean     0.740488                       # Number of insts commited each cycle (Count)
testsys.cpu_cluster.cpus0.commit.numCommittedDist::stdev     1.827560                       # Number of insts commited each cycle (Count)
testsys.cpu_cluster.cpus0.commit.numCommittedDist::underflows            0      0.00%      0.00% # Number of insts commited each cycle (Count)
testsys.cpu_cluster.cpus0.commit.numCommittedDist::0       650945     75.65%     75.65% # Number of insts commited each cycle (Count)
testsys.cpu_cluster.cpus0.commit.numCommittedDist::1        95338     11.08%     86.72% # Number of insts commited each cycle (Count)
testsys.cpu_cluster.cpus0.commit.numCommittedDist::2        32994      3.83%     90.56% # Number of insts commited each cycle (Count)
testsys.cpu_cluster.cpus0.commit.numCommittedDist::3        15519      1.80%     92.36% # Number of insts commited each cycle (Count)
testsys.cpu_cluster.cpus0.commit.numCommittedDist::4        14405      1.67%     94.04% # Number of insts commited each cycle (Count)
testsys.cpu_cluster.cpus0.commit.numCommittedDist::5         4782      0.56%     94.59% # Number of insts commited each cycle (Count)
testsys.cpu_cluster.cpus0.commit.numCommittedDist::6         9118      1.06%     95.65% # Number of insts commited each cycle (Count)
testsys.cpu_cluster.cpus0.commit.numCommittedDist::7         6283      0.73%     96.38% # Number of insts commited each cycle (Count)
testsys.cpu_cluster.cpus0.commit.numCommittedDist::8        31138      3.62%    100.00% # Number of insts commited each cycle (Count)
testsys.cpu_cluster.cpus0.commit.numCommittedDist::overflows            0      0.00%    100.00% # Number of insts commited each cycle (Count)
testsys.cpu_cluster.cpus0.commit.numCommittedDist::min_value            0                       # Number of insts commited each cycle (Count)
testsys.cpu_cluster.cpus0.commit.numCommittedDist::max_value            8                       # Number of insts commited each cycle (Count)
testsys.cpu_cluster.cpus0.commit.numCommittedDist::total       860522                       # Number of insts commited each cycle (Count)
testsys.cpu_cluster.cpus0.commit.instsCommitted       554940                       # Number of instructions committed (Count)
testsys.cpu_cluster.cpus0.commit.opsCommitted       637206                       # Number of ops (including micro ops) committed (Count)
testsys.cpu_cluster.cpus0.commit.memRefs       162922                       # Number of memory references committed (Count)
testsys.cpu_cluster.cpus0.commit.loads          87373                       # Number of loads committed (Count)
testsys.cpu_cluster.cpus0.commit.amos            2536                       # Number of atomic instructions committed (Count)
testsys.cpu_cluster.cpus0.commit.membars         7278                       # Number of memory barriers committed (Count)
testsys.cpu_cluster.cpus0.commit.branches       118442                       # Number of branches committed (Count)
testsys.cpu_cluster.cpus0.commit.vectorInstructions            0                       # Number of committed Vector instructions. (Count)
testsys.cpu_cluster.cpus0.commit.floating            0                       # Number of committed floating point instructions. (Count)
testsys.cpu_cluster.cpus0.commit.integer       579972                       # Number of committed integer instructions. (Count)
testsys.cpu_cluster.cpus0.commit.functionCalls        23461                       # Number of function calls committed. (Count)
testsys.cpu_cluster.cpus0.commit.committedInstType_0::No_OpClass            0      0.00%      0.00% # Class of committed instruction (Count)
testsys.cpu_cluster.cpus0.commit.committedInstType_0::IntAlu       472514     74.15%     74.15% # Class of committed instruction (Count)
testsys.cpu_cluster.cpus0.commit.committedInstType_0::IntMult         1478      0.23%     74.39% # Class of committed instruction (Count)
testsys.cpu_cluster.cpus0.commit.committedInstType_0::IntDiv          292      0.05%     74.43% # Class of committed instruction (Count)
testsys.cpu_cluster.cpus0.commit.committedInstType_0::FloatAdd            0      0.00%     74.43% # Class of committed instruction (Count)
testsys.cpu_cluster.cpus0.commit.committedInstType_0::FloatCmp            0      0.00%     74.43% # Class of committed instruction (Count)
testsys.cpu_cluster.cpus0.commit.committedInstType_0::FloatCvt            0      0.00%     74.43% # Class of committed instruction (Count)
testsys.cpu_cluster.cpus0.commit.committedInstType_0::FloatMult            0      0.00%     74.43% # Class of committed instruction (Count)
testsys.cpu_cluster.cpus0.commit.committedInstType_0::FloatMultAcc            0      0.00%     74.43% # Class of committed instruction (Count)
testsys.cpu_cluster.cpus0.commit.committedInstType_0::FloatDiv            0      0.00%     74.43% # Class of committed instruction (Count)
testsys.cpu_cluster.cpus0.commit.committedInstType_0::FloatMisc            0      0.00%     74.43% # Class of committed instruction (Count)
testsys.cpu_cluster.cpus0.commit.committedInstType_0::FloatSqrt            0      0.00%     74.43% # Class of committed instruction (Count)
testsys.cpu_cluster.cpus0.commit.committedInstType_0::SimdAdd            0      0.00%     74.43% # Class of committed instruction (Count)
testsys.cpu_cluster.cpus0.commit.committedInstType_0::SimdAddAcc            0      0.00%     74.43% # Class of committed instruction (Count)
testsys.cpu_cluster.cpus0.commit.committedInstType_0::SimdAlu            0      0.00%     74.43% # Class of committed instruction (Count)
testsys.cpu_cluster.cpus0.commit.committedInstType_0::SimdCmp            0      0.00%     74.43% # Class of committed instruction (Count)
testsys.cpu_cluster.cpus0.commit.committedInstType_0::SimdCvt            0      0.00%     74.43% # Class of committed instruction (Count)
testsys.cpu_cluster.cpus0.commit.committedInstType_0::SimdMisc            0      0.00%     74.43% # Class of committed instruction (Count)
testsys.cpu_cluster.cpus0.commit.committedInstType_0::SimdMult            0      0.00%     74.43% # Class of committed instruction (Count)
testsys.cpu_cluster.cpus0.commit.committedInstType_0::SimdMultAcc            0      0.00%     74.43% # Class of committed instruction (Count)
testsys.cpu_cluster.cpus0.commit.committedInstType_0::SimdShift            0      0.00%     74.43% # Class of committed instruction (Count)
testsys.cpu_cluster.cpus0.commit.committedInstType_0::SimdShiftAcc            0      0.00%     74.43% # Class of committed instruction (Count)
testsys.cpu_cluster.cpus0.commit.committedInstType_0::SimdDiv            0      0.00%     74.43% # Class of committed instruction (Count)
testsys.cpu_cluster.cpus0.commit.committedInstType_0::SimdSqrt            0      0.00%     74.43% # Class of committed instruction (Count)
testsys.cpu_cluster.cpus0.commit.committedInstType_0::SimdFloatAdd            0      0.00%     74.43% # Class of committed instruction (Count)
testsys.cpu_cluster.cpus0.commit.committedInstType_0::SimdFloatAlu            0      0.00%     74.43% # Class of committed instruction (Count)
testsys.cpu_cluster.cpus0.commit.committedInstType_0::SimdFloatCmp            0      0.00%     74.43% # Class of committed instruction (Count)
testsys.cpu_cluster.cpus0.commit.committedInstType_0::SimdFloatCvt            0      0.00%     74.43% # Class of committed instruction (Count)
testsys.cpu_cluster.cpus0.commit.committedInstType_0::SimdFloatDiv            0      0.00%     74.43% # Class of committed instruction (Count)
testsys.cpu_cluster.cpus0.commit.committedInstType_0::SimdFloatMisc            0      0.00%     74.43% # Class of committed instruction (Count)
testsys.cpu_cluster.cpus0.commit.committedInstType_0::SimdFloatMult            0      0.00%     74.43% # Class of committed instruction (Count)
testsys.cpu_cluster.cpus0.commit.committedInstType_0::SimdFloatMultAcc            0      0.00%     74.43% # Class of committed instruction (Count)
testsys.cpu_cluster.cpus0.commit.committedInstType_0::SimdFloatSqrt            0      0.00%     74.43% # Class of committed instruction (Count)
testsys.cpu_cluster.cpus0.commit.committedInstType_0::SimdReduceAdd            0      0.00%     74.43% # Class of committed instruction (Count)
testsys.cpu_cluster.cpus0.commit.committedInstType_0::SimdReduceAlu            0      0.00%     74.43% # Class of committed instruction (Count)
testsys.cpu_cluster.cpus0.commit.committedInstType_0::SimdReduceCmp            0      0.00%     74.43% # Class of committed instruction (Count)
testsys.cpu_cluster.cpus0.commit.committedInstType_0::SimdFloatReduceAdd            0      0.00%     74.43% # Class of committed instruction (Count)
testsys.cpu_cluster.cpus0.commit.committedInstType_0::SimdFloatReduceCmp            0      0.00%     74.43% # Class of committed instruction (Count)
testsys.cpu_cluster.cpus0.commit.committedInstType_0::SimdAes            0      0.00%     74.43% # Class of committed instruction (Count)
testsys.cpu_cluster.cpus0.commit.committedInstType_0::SimdAesMix            0      0.00%     74.43% # Class of committed instruction (Count)
testsys.cpu_cluster.cpus0.commit.committedInstType_0::SimdSha1Hash            0      0.00%     74.43% # Class of committed instruction (Count)
testsys.cpu_cluster.cpus0.commit.committedInstType_0::SimdSha1Hash2            0      0.00%     74.43% # Class of committed instruction (Count)
testsys.cpu_cluster.cpus0.commit.committedInstType_0::SimdSha256Hash            0      0.00%     74.43% # Class of committed instruction (Count)
testsys.cpu_cluster.cpus0.commit.committedInstType_0::SimdSha256Hash2            0      0.00%     74.43% # Class of committed instruction (Count)
testsys.cpu_cluster.cpus0.commit.committedInstType_0::SimdShaSigma2            0      0.00%     74.43% # Class of committed instruction (Count)
testsys.cpu_cluster.cpus0.commit.committedInstType_0::SimdShaSigma3            0      0.00%     74.43% # Class of committed instruction (Count)
testsys.cpu_cluster.cpus0.commit.committedInstType_0::SimdPredAlu            0      0.00%     74.43% # Class of committed instruction (Count)
testsys.cpu_cluster.cpus0.commit.committedInstType_0::MemRead        87373     13.71%     88.14% # Class of committed instruction (Count)
testsys.cpu_cluster.cpus0.commit.committedInstType_0::MemWrite        75549     11.86%    100.00% # Class of committed instruction (Count)
testsys.cpu_cluster.cpus0.commit.committedInstType_0::FloatMemRead            0      0.00%    100.00% # Class of committed instruction (Count)
testsys.cpu_cluster.cpus0.commit.committedInstType_0::FloatMemWrite            0      0.00%    100.00% # Class of committed instruction (Count)
testsys.cpu_cluster.cpus0.commit.committedInstType_0::IprAccess            0      0.00%    100.00% # Class of committed instruction (Count)
testsys.cpu_cluster.cpus0.commit.committedInstType_0::InstPrefetch            0      0.00%    100.00% # Class of committed instruction (Count)
testsys.cpu_cluster.cpus0.commit.committedInstType_0::total       637206                       # Class of committed instruction (Count)
testsys.cpu_cluster.cpus0.commit.commitEligibleSamples        31138                       # number cycles where commit BW limit reached (Cycle)
testsys.cpu_cluster.cpus0.dcache.demandHits::cpu_cluster.cpus0.data       157712                       # number of demand (read+write) hits (Count)
testsys.cpu_cluster.cpus0.dcache.demandHits::total       157712                       # number of demand (read+write) hits (Count)
testsys.cpu_cluster.cpus0.dcache.overallHits::cpu_cluster.cpus0.data       157712                       # number of overall hits (Count)
testsys.cpu_cluster.cpus0.dcache.overallHits::total       157712                       # number of overall hits (Count)
testsys.cpu_cluster.cpus0.dcache.demandMisses::cpu_cluster.cpus0.data         3772                       # number of demand (read+write) misses (Count)
testsys.cpu_cluster.cpus0.dcache.demandMisses::total         3772                       # number of demand (read+write) misses (Count)
testsys.cpu_cluster.cpus0.dcache.overallMisses::cpu_cluster.cpus0.data         3772                       # number of overall misses (Count)
testsys.cpu_cluster.cpus0.dcache.overallMisses::total         3772                       # number of overall misses (Count)
testsys.cpu_cluster.cpus0.dcache.demandMissLatency::cpu_cluster.cpus0.data    113331500                       # number of demand (read+write) miss ticks (Tick)
testsys.cpu_cluster.cpus0.dcache.demandMissLatency::total    113331500                       # number of demand (read+write) miss ticks (Tick)
testsys.cpu_cluster.cpus0.dcache.overallMissLatency::cpu_cluster.cpus0.data    113331500                       # number of overall miss ticks (Tick)
testsys.cpu_cluster.cpus0.dcache.overallMissLatency::total    113331500                       # number of overall miss ticks (Tick)
testsys.cpu_cluster.cpus0.dcache.demandAccesses::cpu_cluster.cpus0.data       161484                       # number of demand (read+write) accesses (Count)
testsys.cpu_cluster.cpus0.dcache.demandAccesses::total       161484                       # number of demand (read+write) accesses (Count)
testsys.cpu_cluster.cpus0.dcache.overallAccesses::cpu_cluster.cpus0.data       161484                       # number of overall (read+write) accesses (Count)
testsys.cpu_cluster.cpus0.dcache.overallAccesses::total       161484                       # number of overall (read+write) accesses (Count)
testsys.cpu_cluster.cpus0.dcache.demandMissRate::cpu_cluster.cpus0.data     0.023358                       # miss rate for demand accesses (Ratio)
testsys.cpu_cluster.cpus0.dcache.demandMissRate::total     0.023358                       # miss rate for demand accesses (Ratio)
testsys.cpu_cluster.cpus0.dcache.overallMissRate::cpu_cluster.cpus0.data     0.023358                       # miss rate for overall accesses (Ratio)
testsys.cpu_cluster.cpus0.dcache.overallMissRate::total     0.023358                       # miss rate for overall accesses (Ratio)
testsys.cpu_cluster.cpus0.dcache.demandAvgMissLatency::cpu_cluster.cpus0.data 30045.466596                       # average overall miss latency ((Cycle/Count))
testsys.cpu_cluster.cpus0.dcache.demandAvgMissLatency::total 30045.466596                       # average overall miss latency ((Cycle/Count))
testsys.cpu_cluster.cpus0.dcache.overallAvgMissLatency::cpu_cluster.cpus0.data 30045.466596                       # average overall miss latency ((Cycle/Count))
testsys.cpu_cluster.cpus0.dcache.overallAvgMissLatency::total 30045.466596                       # average overall miss latency ((Cycle/Count))
testsys.cpu_cluster.cpus0.dcache.blockedCycles::no_mshrs            0                       # number of cycles access was blocked (Cycle)
testsys.cpu_cluster.cpus0.dcache.blockedCycles::no_targets            0                       # number of cycles access was blocked (Cycle)
testsys.cpu_cluster.cpus0.dcache.blockedCauses::no_mshrs            0                       # number of times access was blocked (Count)
testsys.cpu_cluster.cpus0.dcache.blockedCauses::no_targets            0                       # number of times access was blocked (Count)
testsys.cpu_cluster.cpus0.dcache.avgBlocked::no_mshrs          nan                       # average number of cycles each access was blocked ((Cycle/Count))
testsys.cpu_cluster.cpus0.dcache.avgBlocked::no_targets          nan                       # average number of cycles each access was blocked ((Cycle/Count))
testsys.cpu_cluster.cpus0.dcache.writebacks::writebacks          623                       # number of writebacks (Count)
testsys.cpu_cluster.cpus0.dcache.writebacks::total          623                       # number of writebacks (Count)
testsys.cpu_cluster.cpus0.dcache.demandMshrHits::cpu_cluster.cpus0.data         1533                       # number of demand (read+write) MSHR hits (Count)
testsys.cpu_cluster.cpus0.dcache.demandMshrHits::total         1533                       # number of demand (read+write) MSHR hits (Count)
testsys.cpu_cluster.cpus0.dcache.overallMshrHits::cpu_cluster.cpus0.data         1533                       # number of overall MSHR hits (Count)
testsys.cpu_cluster.cpus0.dcache.overallMshrHits::total         1533                       # number of overall MSHR hits (Count)
testsys.cpu_cluster.cpus0.dcache.demandMshrMisses::cpu_cluster.cpus0.data         2239                       # number of demand (read+write) MSHR misses (Count)
testsys.cpu_cluster.cpus0.dcache.demandMshrMisses::total         2239                       # number of demand (read+write) MSHR misses (Count)
testsys.cpu_cluster.cpus0.dcache.overallMshrMisses::cpu_cluster.cpus0.data         2239                       # number of overall MSHR misses (Count)
testsys.cpu_cluster.cpus0.dcache.overallMshrMisses::total         2239                       # number of overall MSHR misses (Count)
testsys.cpu_cluster.cpus0.dcache.overallMshrUncacheable::cpu_cluster.cpus0.data          121                       # number of overall MSHR uncacheable misses (Count)
testsys.cpu_cluster.cpus0.dcache.overallMshrUncacheable::total          121                       # number of overall MSHR uncacheable misses (Count)
testsys.cpu_cluster.cpus0.dcache.demandMshrMissLatency::cpu_cluster.cpus0.data     70654250                       # number of demand (read+write) MSHR miss ticks (Tick)
testsys.cpu_cluster.cpus0.dcache.demandMshrMissLatency::total     70654250                       # number of demand (read+write) MSHR miss ticks (Tick)
testsys.cpu_cluster.cpus0.dcache.overallMshrMissLatency::cpu_cluster.cpus0.data     70654250                       # number of overall MSHR miss ticks (Tick)
testsys.cpu_cluster.cpus0.dcache.overallMshrMissLatency::total     70654250                       # number of overall MSHR miss ticks (Tick)
testsys.cpu_cluster.cpus0.dcache.overallMshrUncacheableLatency::cpu_cluster.cpus0.data      4031250                       # number of overall MSHR uncacheable ticks (Tick)
testsys.cpu_cluster.cpus0.dcache.overallMshrUncacheableLatency::total      4031250                       # number of overall MSHR uncacheable ticks (Tick)
testsys.cpu_cluster.cpus0.dcache.demandMshrMissRate::cpu_cluster.cpus0.data     0.013865                       # mshr miss ratio for demand accesses (Ratio)
testsys.cpu_cluster.cpus0.dcache.demandMshrMissRate::total     0.013865                       # mshr miss ratio for demand accesses (Ratio)
testsys.cpu_cluster.cpus0.dcache.overallMshrMissRate::cpu_cluster.cpus0.data     0.013865                       # mshr miss ratio for overall accesses (Ratio)
testsys.cpu_cluster.cpus0.dcache.overallMshrMissRate::total     0.013865                       # mshr miss ratio for overall accesses (Ratio)
testsys.cpu_cluster.cpus0.dcache.demandAvgMshrMissLatency::cpu_cluster.cpus0.data 31556.163466                       # average overall mshr miss latency ((Cycle/Count))
testsys.cpu_cluster.cpus0.dcache.demandAvgMshrMissLatency::total 31556.163466                       # average overall mshr miss latency ((Cycle/Count))
testsys.cpu_cluster.cpus0.dcache.overallAvgMshrMissLatency::cpu_cluster.cpus0.data 31556.163466                       # average overall mshr miss latency ((Cycle/Count))
testsys.cpu_cluster.cpus0.dcache.overallAvgMshrMissLatency::total 31556.163466                       # average overall mshr miss latency ((Cycle/Count))
testsys.cpu_cluster.cpus0.dcache.overallAvgMshrUncacheableLatency::cpu_cluster.cpus0.data 33316.115702                       # average overall mshr uncacheable latency ((Cycle/Count))
testsys.cpu_cluster.cpus0.dcache.overallAvgMshrUncacheableLatency::total 33316.115702                       # average overall mshr uncacheable latency ((Cycle/Count))
testsys.cpu_cluster.cpus0.dcache.replacements         1284                       # number of replacements (Count)
testsys.cpu_cluster.cpus0.dcache.LoadLockedReq.hits::cpu_cluster.cpus0.data            4                       # number of LoadLockedReq hits (Count)
testsys.cpu_cluster.cpus0.dcache.LoadLockedReq.hits::total            4                       # number of LoadLockedReq hits (Count)
testsys.cpu_cluster.cpus0.dcache.LoadLockedReq.misses::cpu_cluster.cpus0.data            1                       # number of LoadLockedReq misses (Count)
testsys.cpu_cluster.cpus0.dcache.LoadLockedReq.misses::total            1                       # number of LoadLockedReq misses (Count)
testsys.cpu_cluster.cpus0.dcache.LoadLockedReq.missLatency::cpu_cluster.cpus0.data         1750                       # number of LoadLockedReq miss ticks (Tick)
testsys.cpu_cluster.cpus0.dcache.LoadLockedReq.missLatency::total         1750                       # number of LoadLockedReq miss ticks (Tick)
testsys.cpu_cluster.cpus0.dcache.LoadLockedReq.accesses::cpu_cluster.cpus0.data            5                       # number of LoadLockedReq accesses(hits+misses) (Count)
testsys.cpu_cluster.cpus0.dcache.LoadLockedReq.accesses::total            5                       # number of LoadLockedReq accesses(hits+misses) (Count)
testsys.cpu_cluster.cpus0.dcache.LoadLockedReq.missRate::cpu_cluster.cpus0.data     0.200000                       # miss rate for LoadLockedReq accesses (Ratio)
testsys.cpu_cluster.cpus0.dcache.LoadLockedReq.missRate::total     0.200000                       # miss rate for LoadLockedReq accesses (Ratio)
testsys.cpu_cluster.cpus0.dcache.LoadLockedReq.avgMissLatency::cpu_cluster.cpus0.data         1750                       # average LoadLockedReq miss latency ((Tick/Count))
testsys.cpu_cluster.cpus0.dcache.LoadLockedReq.avgMissLatency::total         1750                       # average LoadLockedReq miss latency ((Tick/Count))
testsys.cpu_cluster.cpus0.dcache.LoadLockedReq.mshrMisses::cpu_cluster.cpus0.data            1                       # number of LoadLockedReq MSHR misses (Count)
testsys.cpu_cluster.cpus0.dcache.LoadLockedReq.mshrMisses::total            1                       # number of LoadLockedReq MSHR misses (Count)
testsys.cpu_cluster.cpus0.dcache.LoadLockedReq.mshrMissLatency::cpu_cluster.cpus0.data         1500                       # number of LoadLockedReq MSHR miss ticks (Tick)
testsys.cpu_cluster.cpus0.dcache.LoadLockedReq.mshrMissLatency::total         1500                       # number of LoadLockedReq MSHR miss ticks (Tick)
testsys.cpu_cluster.cpus0.dcache.LoadLockedReq.mshrMissRate::cpu_cluster.cpus0.data     0.200000                       # mshr miss rate for LoadLockedReq accesses (Ratio)
testsys.cpu_cluster.cpus0.dcache.LoadLockedReq.mshrMissRate::total     0.200000                       # mshr miss rate for LoadLockedReq accesses (Ratio)
testsys.cpu_cluster.cpus0.dcache.LoadLockedReq.avgMshrMissLatency::cpu_cluster.cpus0.data         1500                       # average LoadLockedReq mshr miss latency ((Tick/Count))
testsys.cpu_cluster.cpus0.dcache.LoadLockedReq.avgMshrMissLatency::total         1500                       # average LoadLockedReq mshr miss latency ((Tick/Count))
testsys.cpu_cluster.cpus0.dcache.ReadReq.hits::cpu_cluster.cpus0.data        85817                       # number of ReadReq hits (Count)
testsys.cpu_cluster.cpus0.dcache.ReadReq.hits::total        85817                       # number of ReadReq hits (Count)
testsys.cpu_cluster.cpus0.dcache.ReadReq.misses::cpu_cluster.cpus0.data         2691                       # number of ReadReq misses (Count)
testsys.cpu_cluster.cpus0.dcache.ReadReq.misses::total         2691                       # number of ReadReq misses (Count)
testsys.cpu_cluster.cpus0.dcache.ReadReq.missLatency::cpu_cluster.cpus0.data    101412750                       # number of ReadReq miss ticks (Tick)
testsys.cpu_cluster.cpus0.dcache.ReadReq.missLatency::total    101412750                       # number of ReadReq miss ticks (Tick)
testsys.cpu_cluster.cpus0.dcache.ReadReq.accesses::cpu_cluster.cpus0.data        88508                       # number of ReadReq accesses(hits+misses) (Count)
testsys.cpu_cluster.cpus0.dcache.ReadReq.accesses::total        88508                       # number of ReadReq accesses(hits+misses) (Count)
testsys.cpu_cluster.cpus0.dcache.ReadReq.missRate::cpu_cluster.cpus0.data     0.030404                       # miss rate for ReadReq accesses (Ratio)
testsys.cpu_cluster.cpus0.dcache.ReadReq.missRate::total     0.030404                       # miss rate for ReadReq accesses (Ratio)
testsys.cpu_cluster.cpus0.dcache.ReadReq.avgMissLatency::cpu_cluster.cpus0.data 37685.897436                       # average ReadReq miss latency ((Tick/Count))
testsys.cpu_cluster.cpus0.dcache.ReadReq.avgMissLatency::total 37685.897436                       # average ReadReq miss latency ((Tick/Count))
testsys.cpu_cluster.cpus0.dcache.ReadReq.mshrHits::cpu_cluster.cpus0.data         1031                       # number of ReadReq MSHR hits (Count)
testsys.cpu_cluster.cpus0.dcache.ReadReq.mshrHits::total         1031                       # number of ReadReq MSHR hits (Count)
testsys.cpu_cluster.cpus0.dcache.ReadReq.mshrMisses::cpu_cluster.cpus0.data         1660                       # number of ReadReq MSHR misses (Count)
testsys.cpu_cluster.cpus0.dcache.ReadReq.mshrMisses::total         1660                       # number of ReadReq MSHR misses (Count)
testsys.cpu_cluster.cpus0.dcache.ReadReq.mshrUncacheable::cpu_cluster.cpus0.data           84                       # number of ReadReq MSHR uncacheable (Count)
testsys.cpu_cluster.cpus0.dcache.ReadReq.mshrUncacheable::total           84                       # number of ReadReq MSHR uncacheable (Count)
testsys.cpu_cluster.cpus0.dcache.ReadReq.mshrMissLatency::cpu_cluster.cpus0.data     64722500                       # number of ReadReq MSHR miss ticks (Tick)
testsys.cpu_cluster.cpus0.dcache.ReadReq.mshrMissLatency::total     64722500                       # number of ReadReq MSHR miss ticks (Tick)
testsys.cpu_cluster.cpus0.dcache.ReadReq.mshrUncacheableLatency::cpu_cluster.cpus0.data      4031250                       # number of ReadReq MSHR uncacheable ticks (Tick)
testsys.cpu_cluster.cpus0.dcache.ReadReq.mshrUncacheableLatency::total      4031250                       # number of ReadReq MSHR uncacheable ticks (Tick)
testsys.cpu_cluster.cpus0.dcache.ReadReq.mshrMissRate::cpu_cluster.cpus0.data     0.018755                       # mshr miss rate for ReadReq accesses (Ratio)
testsys.cpu_cluster.cpus0.dcache.ReadReq.mshrMissRate::total     0.018755                       # mshr miss rate for ReadReq accesses (Ratio)
testsys.cpu_cluster.cpus0.dcache.ReadReq.avgMshrMissLatency::cpu_cluster.cpus0.data 38989.457831                       # average ReadReq mshr miss latency ((Tick/Count))
testsys.cpu_cluster.cpus0.dcache.ReadReq.avgMshrMissLatency::total 38989.457831                       # average ReadReq mshr miss latency ((Tick/Count))
testsys.cpu_cluster.cpus0.dcache.ReadReq.avgMshrUncacheableLatency::cpu_cluster.cpus0.data 47991.071429                       # average ReadReq mshr uncacheable latency ((Tick/Count))
testsys.cpu_cluster.cpus0.dcache.ReadReq.avgMshrUncacheableLatency::total 47991.071429                       # average ReadReq mshr uncacheable latency ((Tick/Count))
testsys.cpu_cluster.cpus0.dcache.SwapReq.hits::cpu_cluster.cpus0.data         2325                       # number of SwapReq hits (Count)
testsys.cpu_cluster.cpus0.dcache.SwapReq.hits::total         2325                       # number of SwapReq hits (Count)
testsys.cpu_cluster.cpus0.dcache.SwapReq.misses::cpu_cluster.cpus0.data          211                       # number of SwapReq misses (Count)
testsys.cpu_cluster.cpus0.dcache.SwapReq.misses::total          211                       # number of SwapReq misses (Count)
testsys.cpu_cluster.cpus0.dcache.SwapReq.missLatency::cpu_cluster.cpus0.data      1059000                       # number of SwapReq miss ticks (Tick)
testsys.cpu_cluster.cpus0.dcache.SwapReq.missLatency::total      1059000                       # number of SwapReq miss ticks (Tick)
testsys.cpu_cluster.cpus0.dcache.SwapReq.accesses::cpu_cluster.cpus0.data         2536                       # number of SwapReq accesses(hits+misses) (Count)
testsys.cpu_cluster.cpus0.dcache.SwapReq.accesses::total         2536                       # number of SwapReq accesses(hits+misses) (Count)
testsys.cpu_cluster.cpus0.dcache.SwapReq.missRate::cpu_cluster.cpus0.data     0.083202                       # miss rate for SwapReq accesses (Ratio)
testsys.cpu_cluster.cpus0.dcache.SwapReq.missRate::total     0.083202                       # miss rate for SwapReq accesses (Ratio)
testsys.cpu_cluster.cpus0.dcache.SwapReq.avgMissLatency::cpu_cluster.cpus0.data  5018.957346                       # average SwapReq miss latency ((Tick/Count))
testsys.cpu_cluster.cpus0.dcache.SwapReq.avgMissLatency::total  5018.957346                       # average SwapReq miss latency ((Tick/Count))
testsys.cpu_cluster.cpus0.dcache.SwapReq.mshrMisses::cpu_cluster.cpus0.data          211                       # number of SwapReq MSHR misses (Count)
testsys.cpu_cluster.cpus0.dcache.SwapReq.mshrMisses::total          211                       # number of SwapReq MSHR misses (Count)
testsys.cpu_cluster.cpus0.dcache.SwapReq.mshrMissLatency::cpu_cluster.cpus0.data      1006250                       # number of SwapReq MSHR miss ticks (Tick)
testsys.cpu_cluster.cpus0.dcache.SwapReq.mshrMissLatency::total      1006250                       # number of SwapReq MSHR miss ticks (Tick)
testsys.cpu_cluster.cpus0.dcache.SwapReq.mshrMissRate::cpu_cluster.cpus0.data     0.083202                       # mshr miss rate for SwapReq accesses (Ratio)
testsys.cpu_cluster.cpus0.dcache.SwapReq.mshrMissRate::total     0.083202                       # mshr miss rate for SwapReq accesses (Ratio)
testsys.cpu_cluster.cpus0.dcache.SwapReq.avgMshrMissLatency::cpu_cluster.cpus0.data  4768.957346                       # average SwapReq mshr miss latency ((Tick/Count))
testsys.cpu_cluster.cpus0.dcache.SwapReq.avgMshrMissLatency::total  4768.957346                       # average SwapReq mshr miss latency ((Tick/Count))
testsys.cpu_cluster.cpus0.dcache.WriteReq.hits::cpu_cluster.cpus0.data        71895                       # number of WriteReq hits (Count)
testsys.cpu_cluster.cpus0.dcache.WriteReq.hits::total        71895                       # number of WriteReq hits (Count)
testsys.cpu_cluster.cpus0.dcache.WriteReq.misses::cpu_cluster.cpus0.data         1081                       # number of WriteReq misses (Count)
testsys.cpu_cluster.cpus0.dcache.WriteReq.misses::total         1081                       # number of WriteReq misses (Count)
testsys.cpu_cluster.cpus0.dcache.WriteReq.missLatency::cpu_cluster.cpus0.data     11918750                       # number of WriteReq miss ticks (Tick)
testsys.cpu_cluster.cpus0.dcache.WriteReq.missLatency::total     11918750                       # number of WriteReq miss ticks (Tick)
testsys.cpu_cluster.cpus0.dcache.WriteReq.accesses::cpu_cluster.cpus0.data        72976                       # number of WriteReq accesses(hits+misses) (Count)
testsys.cpu_cluster.cpus0.dcache.WriteReq.accesses::total        72976                       # number of WriteReq accesses(hits+misses) (Count)
testsys.cpu_cluster.cpus0.dcache.WriteReq.missRate::cpu_cluster.cpus0.data     0.014813                       # miss rate for WriteReq accesses (Ratio)
testsys.cpu_cluster.cpus0.dcache.WriteReq.missRate::total     0.014813                       # miss rate for WriteReq accesses (Ratio)
testsys.cpu_cluster.cpus0.dcache.WriteReq.avgMissLatency::cpu_cluster.cpus0.data 11025.670675                       # average WriteReq miss latency ((Tick/Count))
testsys.cpu_cluster.cpus0.dcache.WriteReq.avgMissLatency::total 11025.670675                       # average WriteReq miss latency ((Tick/Count))
testsys.cpu_cluster.cpus0.dcache.WriteReq.mshrHits::cpu_cluster.cpus0.data          502                       # number of WriteReq MSHR hits (Count)
testsys.cpu_cluster.cpus0.dcache.WriteReq.mshrHits::total          502                       # number of WriteReq MSHR hits (Count)
testsys.cpu_cluster.cpus0.dcache.WriteReq.mshrMisses::cpu_cluster.cpus0.data          579                       # number of WriteReq MSHR misses (Count)
testsys.cpu_cluster.cpus0.dcache.WriteReq.mshrMisses::total          579                       # number of WriteReq MSHR misses (Count)
testsys.cpu_cluster.cpus0.dcache.WriteReq.mshrUncacheable::cpu_cluster.cpus0.data           37                       # number of WriteReq MSHR uncacheable (Count)
testsys.cpu_cluster.cpus0.dcache.WriteReq.mshrUncacheable::total           37                       # number of WriteReq MSHR uncacheable (Count)
testsys.cpu_cluster.cpus0.dcache.WriteReq.mshrMissLatency::cpu_cluster.cpus0.data      5931750                       # number of WriteReq MSHR miss ticks (Tick)
testsys.cpu_cluster.cpus0.dcache.WriteReq.mshrMissLatency::total      5931750                       # number of WriteReq MSHR miss ticks (Tick)
testsys.cpu_cluster.cpus0.dcache.WriteReq.mshrMissRate::cpu_cluster.cpus0.data     0.007934                       # mshr miss rate for WriteReq accesses (Ratio)
testsys.cpu_cluster.cpus0.dcache.WriteReq.mshrMissRate::total     0.007934                       # mshr miss rate for WriteReq accesses (Ratio)
testsys.cpu_cluster.cpus0.dcache.WriteReq.avgMshrMissLatency::cpu_cluster.cpus0.data 10244.818653                       # average WriteReq mshr miss latency ((Tick/Count))
testsys.cpu_cluster.cpus0.dcache.WriteReq.avgMshrMissLatency::total 10244.818653                       # average WriteReq mshr miss latency ((Tick/Count))
testsys.cpu_cluster.cpus0.dcache.power_state.pwrStateResidencyTicks::UNDEFINED 583878009750                       # Cumulative time (in ticks) in various power states (Tick)
testsys.cpu_cluster.cpus0.dcache.tags.tagsInUse   465.209811                       # Average ticks per tags in use ((Tick/Count))
testsys.cpu_cluster.cpus0.dcache.tags.totalRefs       190649                       # Total number of references to valid blocks. (Count)
testsys.cpu_cluster.cpus0.dcache.tags.sampledRefs         2340                       # Sample count of references to valid blocks. (Count)
testsys.cpu_cluster.cpus0.dcache.tags.avgRefs    81.473932                       # Average number of references to valid blocks. ((Count/Count))
testsys.cpu_cluster.cpus0.dcache.tags.warmupTick            0                       # The tick when the warmup percentage was hit. (Tick)
testsys.cpu_cluster.cpus0.dcache.tags.occupancies::cpu_cluster.cpus0.data   465.209811                       # Average occupied blocks per tick, per requestor ((Count/Tick))
testsys.cpu_cluster.cpus0.dcache.tags.avgOccs::cpu_cluster.cpus0.data     0.908613                       # Average percentage of cache occupancy ((Ratio/Tick))
testsys.cpu_cluster.cpus0.dcache.tags.avgOccs::total     0.908613                       # Average percentage of cache occupancy ((Ratio/Tick))
testsys.cpu_cluster.cpus0.dcache.tags.occupanciesTaskId::1024          477                       # Occupied blocks per task id (Count)
testsys.cpu_cluster.cpus0.dcache.tags.ageTaskId_1024::3           81                       # Occupied blocks per task id, per block age (Count)
testsys.cpu_cluster.cpus0.dcache.tags.ageTaskId_1024::4          396                       # Occupied blocks per task id, per block age (Count)
testsys.cpu_cluster.cpus0.dcache.tags.ratioOccsTaskId::1024     0.931641                       # Ratio of occupied blocks and all blocks, per task id (Ratio)
testsys.cpu_cluster.cpus0.dcache.tags.tagAccesses       329991                       # Number of tag accesses (Count)
testsys.cpu_cluster.cpus0.dcache.tags.dataAccesses       329991                       # Number of data accesses (Count)
testsys.cpu_cluster.cpus0.dcache.tags.power_state.pwrStateResidencyTicks::UNDEFINED 583878009750                       # Cumulative time (in ticks) in various power states (Tick)
testsys.cpu_cluster.cpus0.decode.idleCycles       117721                       # Number of cycles decode is idle (Cycle)
testsys.cpu_cluster.cpus0.decode.blockedCycles       629426                       # Number of cycles decode is blocked (Cycle)
testsys.cpu_cluster.cpus0.decode.runCycles        91376                       # Number of cycles decode is running (Cycle)
testsys.cpu_cluster.cpus0.decode.unblockCycles        33725                       # Number of cycles decode is unblocking (Cycle)
testsys.cpu_cluster.cpus0.decode.squashCycles         3545                       # Number of cycles decode is squashing (Cycle)
testsys.cpu_cluster.cpus0.decode.branchResolved        59217                       # Number of times decode resolved a branch (Count)
testsys.cpu_cluster.cpus0.decode.branchMispred          916                       # Number of times decode detected a branch misprediction (Count)
testsys.cpu_cluster.cpus0.decode.decodedInsts       764169                       # Number of instructions handled by decode (Count)
testsys.cpu_cluster.cpus0.decode.squashedInsts         3335                       # Number of squashed instructions handled by decode (Count)
testsys.cpu_cluster.cpus0.dtb_walker_cache.demandHits::cpu_cluster.cpus0.mmu.dtb_walker         1654                       # number of demand (read+write) hits (Count)
testsys.cpu_cluster.cpus0.dtb_walker_cache.demandHits::total         1654                       # number of demand (read+write) hits (Count)
testsys.cpu_cluster.cpus0.dtb_walker_cache.overallHits::cpu_cluster.cpus0.mmu.dtb_walker         1654                       # number of overall hits (Count)
testsys.cpu_cluster.cpus0.dtb_walker_cache.overallHits::total         1654                       # number of overall hits (Count)
testsys.cpu_cluster.cpus0.dtb_walker_cache.demandMisses::cpu_cluster.cpus0.mmu.dtb_walker          875                       # number of demand (read+write) misses (Count)
testsys.cpu_cluster.cpus0.dtb_walker_cache.demandMisses::total          875                       # number of demand (read+write) misses (Count)
testsys.cpu_cluster.cpus0.dtb_walker_cache.overallMisses::cpu_cluster.cpus0.mmu.dtb_walker          875                       # number of overall misses (Count)
testsys.cpu_cluster.cpus0.dtb_walker_cache.overallMisses::total          875                       # number of overall misses (Count)
testsys.cpu_cluster.cpus0.dtb_walker_cache.demandMissLatency::cpu_cluster.cpus0.mmu.dtb_walker     40626375                       # number of demand (read+write) miss ticks (Tick)
testsys.cpu_cluster.cpus0.dtb_walker_cache.demandMissLatency::total     40626375                       # number of demand (read+write) miss ticks (Tick)
testsys.cpu_cluster.cpus0.dtb_walker_cache.overallMissLatency::cpu_cluster.cpus0.mmu.dtb_walker     40626375                       # number of overall miss ticks (Tick)
testsys.cpu_cluster.cpus0.dtb_walker_cache.overallMissLatency::total     40626375                       # number of overall miss ticks (Tick)
testsys.cpu_cluster.cpus0.dtb_walker_cache.demandAccesses::cpu_cluster.cpus0.mmu.dtb_walker         2529                       # number of demand (read+write) accesses (Count)
testsys.cpu_cluster.cpus0.dtb_walker_cache.demandAccesses::total         2529                       # number of demand (read+write) accesses (Count)
testsys.cpu_cluster.cpus0.dtb_walker_cache.overallAccesses::cpu_cluster.cpus0.mmu.dtb_walker         2529                       # number of overall (read+write) accesses (Count)
testsys.cpu_cluster.cpus0.dtb_walker_cache.overallAccesses::total         2529                       # number of overall (read+write) accesses (Count)
testsys.cpu_cluster.cpus0.dtb_walker_cache.demandMissRate::cpu_cluster.cpus0.mmu.dtb_walker     0.345987                       # miss rate for demand accesses (Ratio)
testsys.cpu_cluster.cpus0.dtb_walker_cache.demandMissRate::total     0.345987                       # miss rate for demand accesses (Ratio)
testsys.cpu_cluster.cpus0.dtb_walker_cache.overallMissRate::cpu_cluster.cpus0.mmu.dtb_walker     0.345987                       # miss rate for overall accesses (Ratio)
testsys.cpu_cluster.cpus0.dtb_walker_cache.overallMissRate::total     0.345987                       # miss rate for overall accesses (Ratio)
testsys.cpu_cluster.cpus0.dtb_walker_cache.demandAvgMissLatency::cpu_cluster.cpus0.mmu.dtb_walker 46430.142857                       # average overall miss latency ((Cycle/Count))
testsys.cpu_cluster.cpus0.dtb_walker_cache.demandAvgMissLatency::total 46430.142857                       # average overall miss latency ((Cycle/Count))
testsys.cpu_cluster.cpus0.dtb_walker_cache.overallAvgMissLatency::cpu_cluster.cpus0.mmu.dtb_walker 46430.142857                       # average overall miss latency ((Cycle/Count))
testsys.cpu_cluster.cpus0.dtb_walker_cache.overallAvgMissLatency::total 46430.142857                       # average overall miss latency ((Cycle/Count))
testsys.cpu_cluster.cpus0.dtb_walker_cache.blockedCycles::no_mshrs            0                       # number of cycles access was blocked (Cycle)
testsys.cpu_cluster.cpus0.dtb_walker_cache.blockedCycles::no_targets            0                       # number of cycles access was blocked (Cycle)
testsys.cpu_cluster.cpus0.dtb_walker_cache.blockedCauses::no_mshrs            0                       # number of times access was blocked (Count)
testsys.cpu_cluster.cpus0.dtb_walker_cache.blockedCauses::no_targets            0                       # number of times access was blocked (Count)
testsys.cpu_cluster.cpus0.dtb_walker_cache.avgBlocked::no_mshrs          nan                       # average number of cycles each access was blocked ((Cycle/Count))
testsys.cpu_cluster.cpus0.dtb_walker_cache.avgBlocked::no_targets          nan                       # average number of cycles each access was blocked ((Cycle/Count))
testsys.cpu_cluster.cpus0.dtb_walker_cache.writebacks::writebacks          875                       # number of writebacks (Count)
testsys.cpu_cluster.cpus0.dtb_walker_cache.writebacks::total          875                       # number of writebacks (Count)
testsys.cpu_cluster.cpus0.dtb_walker_cache.demandMshrMisses::cpu_cluster.cpus0.mmu.dtb_walker          875                       # number of demand (read+write) MSHR misses (Count)
testsys.cpu_cluster.cpus0.dtb_walker_cache.demandMshrMisses::total          875                       # number of demand (read+write) MSHR misses (Count)
testsys.cpu_cluster.cpus0.dtb_walker_cache.overallMshrMisses::cpu_cluster.cpus0.mmu.dtb_walker          875                       # number of overall MSHR misses (Count)
testsys.cpu_cluster.cpus0.dtb_walker_cache.overallMshrMisses::total          875                       # number of overall MSHR misses (Count)
testsys.cpu_cluster.cpus0.dtb_walker_cache.demandMshrMissLatency::cpu_cluster.cpus0.mmu.dtb_walker     39751375                       # number of demand (read+write) MSHR miss ticks (Tick)
testsys.cpu_cluster.cpus0.dtb_walker_cache.demandMshrMissLatency::total     39751375                       # number of demand (read+write) MSHR miss ticks (Tick)
testsys.cpu_cluster.cpus0.dtb_walker_cache.overallMshrMissLatency::cpu_cluster.cpus0.mmu.dtb_walker     39751375                       # number of overall MSHR miss ticks (Tick)
testsys.cpu_cluster.cpus0.dtb_walker_cache.overallMshrMissLatency::total     39751375                       # number of overall MSHR miss ticks (Tick)
testsys.cpu_cluster.cpus0.dtb_walker_cache.demandMshrMissRate::cpu_cluster.cpus0.mmu.dtb_walker     0.345987                       # mshr miss ratio for demand accesses (Ratio)
testsys.cpu_cluster.cpus0.dtb_walker_cache.demandMshrMissRate::total     0.345987                       # mshr miss ratio for demand accesses (Ratio)
testsys.cpu_cluster.cpus0.dtb_walker_cache.overallMshrMissRate::cpu_cluster.cpus0.mmu.dtb_walker     0.345987                       # mshr miss ratio for overall accesses (Ratio)
testsys.cpu_cluster.cpus0.dtb_walker_cache.overallMshrMissRate::total     0.345987                       # mshr miss ratio for overall accesses (Ratio)
testsys.cpu_cluster.cpus0.dtb_walker_cache.demandAvgMshrMissLatency::cpu_cluster.cpus0.mmu.dtb_walker 45430.142857                       # average overall mshr miss latency ((Cycle/Count))
testsys.cpu_cluster.cpus0.dtb_walker_cache.demandAvgMshrMissLatency::total 45430.142857                       # average overall mshr miss latency ((Cycle/Count))
testsys.cpu_cluster.cpus0.dtb_walker_cache.overallAvgMshrMissLatency::cpu_cluster.cpus0.mmu.dtb_walker 45430.142857                       # average overall mshr miss latency ((Cycle/Count))
testsys.cpu_cluster.cpus0.dtb_walker_cache.overallAvgMshrMissLatency::total 45430.142857                       # average overall mshr miss latency ((Cycle/Count))
testsys.cpu_cluster.cpus0.dtb_walker_cache.replacements          875                       # number of replacements (Count)
testsys.cpu_cluster.cpus0.dtb_walker_cache.ReadReq.hits::cpu_cluster.cpus0.mmu.dtb_walker         1654                       # number of ReadReq hits (Count)
testsys.cpu_cluster.cpus0.dtb_walker_cache.ReadReq.hits::total         1654                       # number of ReadReq hits (Count)
testsys.cpu_cluster.cpus0.dtb_walker_cache.ReadReq.misses::cpu_cluster.cpus0.mmu.dtb_walker          875                       # number of ReadReq misses (Count)
testsys.cpu_cluster.cpus0.dtb_walker_cache.ReadReq.misses::total          875                       # number of ReadReq misses (Count)
testsys.cpu_cluster.cpus0.dtb_walker_cache.ReadReq.missLatency::cpu_cluster.cpus0.mmu.dtb_walker     40626375                       # number of ReadReq miss ticks (Tick)
testsys.cpu_cluster.cpus0.dtb_walker_cache.ReadReq.missLatency::total     40626375                       # number of ReadReq miss ticks (Tick)
testsys.cpu_cluster.cpus0.dtb_walker_cache.ReadReq.accesses::cpu_cluster.cpus0.mmu.dtb_walker         2529                       # number of ReadReq accesses(hits+misses) (Count)
testsys.cpu_cluster.cpus0.dtb_walker_cache.ReadReq.accesses::total         2529                       # number of ReadReq accesses(hits+misses) (Count)
testsys.cpu_cluster.cpus0.dtb_walker_cache.ReadReq.missRate::cpu_cluster.cpus0.mmu.dtb_walker     0.345987                       # miss rate for ReadReq accesses (Ratio)
testsys.cpu_cluster.cpus0.dtb_walker_cache.ReadReq.missRate::total     0.345987                       # miss rate for ReadReq accesses (Ratio)
testsys.cpu_cluster.cpus0.dtb_walker_cache.ReadReq.avgMissLatency::cpu_cluster.cpus0.mmu.dtb_walker 46430.142857                       # average ReadReq miss latency ((Tick/Count))
[...]
testsys.pci_devices1.power_state.pwrStateResidencyTicks::UNDEFINED 583878009750                       # Cumulative time (in ticks) in various power states (Tick)
testsys.pci_devices2.EtherDevice.postedInterrupts            0                       # Number of posts to CPU (Count)
testsys.pci_devices2.EtherDevice.descDmaReads            0                       # Number of descriptors the device read w/ DMA (Count)
testsys.pci_devices2.EtherDevice.descDmaWrites            0                       # Number of descriptors the device wrote w/ DMA (Count)
testsys.pci_devices2.EtherDevice.descDmaRdBytes            0                       # Number of descriptor bytes read w/ DMA (Count)
testsys.pci_devices2.EtherDevice.descDmaWrBytes            0                       # Number of descriptor bytes write w/ DMA (Count)
testsys.pci_devices2.EtherDevice.postedSwi            0                       # Number of software interrupts posted to CPU (Count)
testsys.pci_devices2.EtherDevice.totalSwi            0                       # Total number of Swi written to ISR (Count)
testsys.pci_devices2.EtherDevice.coalescedSwi          nan                       # Average number of Swi's coalesced into each post ((Count/Count))
testsys.pci_devices2.EtherDevice.postedRxIdle            0                       # Number of rxIdle interrupts posted to CPU (Count)
testsys.pci_devices2.EtherDevice.totalRxIdle            0                       # Total number of RxIdle written to ISR (Count)
testsys.pci_devices2.EtherDevice.coalescedRxIdle          nan                       # Average number of RxIdle's coalesced into each post ((Count/Count))
testsys.pci_devices2.EtherDevice.postedRxOk            0                       # Number of RxOk interrupts posted to CPU (Count)
testsys.pci_devices2.EtherDevice.totalRxOk            0                       # Total number of RxOk written to ISR (Count)
testsys.pci_devices2.EtherDevice.coalescedRxOk          nan                       # Average number of RxOk's coalesced into each post ((Count/Count))
testsys.pci_devices2.EtherDevice.postedRxDesc            0                       # Number of RxDesc interrupts posted to CPU (Count)
testsys.pci_devices2.EtherDevice.totalRxDesc            0                       # Total number of RxDesc written to ISR (Count)
testsys.pci_devices2.EtherDevice.coalescedRxDesc          nan                       # Average number of RxDesc's coalesced into each post ((Count/Count))
testsys.pci_devices2.EtherDevice.postedTxOk            0                       # Number of TxOk interrupts posted to CPU (Count)
testsys.pci_devices2.EtherDevice.totalTxOk            0                       # Total number of TxOk written to ISR (Count)
testsys.pci_devices2.EtherDevice.coalescedTxOk          nan                       # Average number of TxOk's coalesced into each post ((Count/Count))
testsys.pci_devices2.EtherDevice.postedTxIdle            0                       # Number of TxIdle interrupts posted to CPU (Count)
testsys.pci_devices2.EtherDevice.totalTxIdle            0                       # Total number of TxIdle written to ISR (Count)
testsys.pci_devices2.EtherDevice.coalescedTxIdle          nan                       # Average number of TxIdle's coalesced into each post ((Count/Count))
testsys.pci_devices2.EtherDevice.postedTxDesc            0                       # Number of TxDesc interrupts posted to CPU (Count)
testsys.pci_devices2.EtherDevice.totalTxDesc            0                       # Total number of TxDesc written to ISR (Count)
testsys.pci_devices2.EtherDevice.coalescedTxDesc          nan                       # Average number of TxDesc's coalesced into each post ((Count/Count))
testsys.pci_devices2.EtherDevice.postedRxOrn            0                       # Number of RxOrn posted to CPU (Count)
testsys.pci_devices2.EtherDevice.totalRxOrn            0                       # Total number of RxOrn written to ISR (Count)
testsys.pci_devices2.EtherDevice.coalescedRxOrn          nan                       # Average number of RxOrn's coalesced into each post ((Count/Count))
testsys.pci_devices2.EtherDevice.coalescedTotal          nan                       # Average number of interrupts coalesced into each post ((Count/Count))
testsys.pci_devices2.EtherDevice.droppedPackets            0                       # Number of packets dropped (Count)
testsys.pci_devices2.power_state.pwrStateResidencyTicks::UNDEFINED 583878009750                       # Cumulative time (in ticks) in various power states (Tick)
testsys.pci_devices3.EtherDevice.postedInterrupts            0                       # Number of posts to CPU (Count)
testsys.pci_devices3.EtherDevice.descDmaReads            0                       # Number of descriptors the device read w/ DMA (Count)
testsys.pci_devices3.EtherDevice.descDmaWrites            0                       # Number of descriptors the device wrote w/ DMA (Count)
testsys.pci_devices3.EtherDevice.descDmaRdBytes            0                       # Number of descriptor bytes read w/ DMA (Count)
testsys.pci_devices3.EtherDevice.descDmaWrBytes            0                       # Number of descriptor bytes write w/ DMA (Count)
testsys.pci_devices3.EtherDevice.postedSwi            0                       # Number of software interrupts posted to CPU (Count)
testsys.pci_devices3.EtherDevice.totalSwi            0                       # Total number of Swi written to ISR (Count)
testsys.pci_devices3.EtherDevice.coalescedSwi          nan                       # Average number of Swi's coalesced into each post ((Count/Count))
testsys.pci_devices3.EtherDevice.postedRxIdle            0                       # Number of rxIdle interrupts posted to CPU (Count)
testsys.pci_devices3.EtherDevice.totalRxIdle            0                       # Total number of RxIdle written to ISR (Count)
testsys.pci_devices3.EtherDevice.coalescedRxIdle          nan                       # Average number of RxIdle's coalesced into each post ((Count/Count))
testsys.pci_devices3.EtherDevice.postedRxOk            0                       # Number of RxOk interrupts posted to CPU (Count)
testsys.pci_devices3.EtherDevice.totalRxOk            0                       # Total number of RxOk written to ISR (Count)
testsys.pci_devices3.EtherDevice.coalescedRxOk          nan                       # Average number of RxOk's coalesced into each post ((Count/Count))
testsys.pci_devices3.EtherDevice.postedRxDesc            0                       # Number of RxDesc interrupts posted to CPU (Count)
testsys.pci_devices3.EtherDevice.totalRxDesc            0                       # Total number of RxDesc written to ISR (Count)
testsys.pci_devices3.EtherDevice.coalescedRxDesc          nan                       # Average number of RxDesc's coalesced into each post ((Count/Count))
testsys.pci_devices3.EtherDevice.postedTxOk            0                       # Number of TxOk interrupts posted to CPU (Count)
testsys.pci_devices3.EtherDevice.totalTxOk            0                       # Total number of TxOk written to ISR (Count)
testsys.pci_devices3.EtherDevice.coalescedTxOk          nan                       # Average number of TxOk's coalesced into each post ((Count/Count))
testsys.pci_devices3.EtherDevice.postedTxIdle            0                       # Number of TxIdle interrupts posted to CPU (Count)
testsys.pci_devices3.EtherDevice.totalTxIdle            0                       # Total number of TxIdle written to ISR (Count)
testsys.pci_devices3.EtherDevice.coalescedTxIdle          nan                       # Average number of TxIdle's coalesced into each post ((Count/Count))
testsys.pci_devices3.EtherDevice.postedTxDesc            0                       # Number of TxDesc interrupts posted to CPU (Count)
testsys.pci_devices3.EtherDevice.totalTxDesc            0                       # Total number of TxDesc written to ISR (Count)
testsys.pci_devices3.EtherDevice.coalescedTxDesc          nan                       # Average number of TxDesc's coalesced into each post ((Count/Count))
testsys.pci_devices3.EtherDevice.postedRxOrn            0                       # Number of RxOrn posted to CPU (Count)
testsys.pci_devices3.EtherDevice.totalRxOrn            0                       # Total number of RxOrn written to ISR (Count)
testsys.pci_devices3.EtherDevice.coalescedRxOrn          nan                       # Average number of RxOrn's coalesced into each post ((Count/Count))
testsys.pci_devices3.EtherDevice.coalescedTotal          nan                       # Average number of interrupts coalesced into each post ((Count/Count))
testsys.pci_devices3.EtherDevice.droppedPackets            0                       # Number of packets dropped (Count)
testsys.pci_devices3.power_state.pwrStateResidencyTicks::UNDEFINED 583878009750                       # Cumulative time (in ticks) in various power states (Tick)
testsys.pci_devices4.EtherDevice.postedInterrupts            0                       # Number of posts to CPU (Count)
testsys.pci_devices4.EtherDevice.descDmaReads            0                       # Number of descriptors the device read w/ DMA (Count)
testsys.pci_devices4.EtherDevice.descDmaWrites            0                       # Number of descriptors the device wrote w/ DMA (Count)
testsys.pci_devices4.EtherDevice.descDmaRdBytes            0                       # Number of descriptor bytes read w/ DMA (Count)
testsys.pci_devices4.EtherDevice.descDmaWrBytes            0                       # Number of descriptor bytes write w/ DMA (Count)
testsys.pci_devices4.EtherDevice.postedSwi            0                       # Number of software interrupts posted to CPU (Count)
testsys.pci_devices4.EtherDevice.totalSwi            0                       # Total number of Swi written to ISR (Count)
testsys.pci_devices4.EtherDevice.coalescedSwi          nan                       # Average number of Swi's coalesced into each post ((Count/Count))
testsys.pci_devices4.EtherDevice.postedRxIdle            0                       # Number of rxIdle interrupts posted to CPU (Count)
testsys.pci_devices4.EtherDevice.totalRxIdle            0                       # Total number of RxIdle written to ISR (Count)
testsys.pci_devices4.EtherDevice.coalescedRxIdle          nan                       # Average number of RxIdle's coalesced into each post ((Count/Count))
testsys.pci_devices4.EtherDevice.postedRxOk            0                       # Number of RxOk interrupts posted to CPU (Count)
testsys.pci_devices4.EtherDevice.totalRxOk            0                       # Total number of RxOk written to ISR (Count)
testsys.pci_devices4.EtherDevice.coalescedRxOk          nan                       # Average number of RxOk's coalesced into each post ((Count/Count))
testsys.pci_devices4.EtherDevice.postedRxDesc            0                       # Number of RxDesc interrupts posted to CPU (Count)
testsys.pci_devices4.EtherDevice.totalRxDesc            0                       # Total number of RxDesc written to ISR (Count)
testsys.pci_devices4.EtherDevice.coalescedRxDesc          nan                       # Average number of RxDesc's coalesced into each post ((Count/Count))
testsys.pci_devices4.EtherDevice.postedTxOk            0                       # Number of TxOk interrupts posted to CPU (Count)
testsys.pci_devices4.EtherDevice.totalTxOk            0                       # Total number of TxOk written to ISR (Count)
testsys.pci_devices4.EtherDevice.coalescedTxOk          nan                       # Average number of TxOk's coalesced into each post ((Count/Count))
testsys.pci_devices4.EtherDevice.postedTxIdle            0                       # Number of TxIdle interrupts posted to CPU (Count)
testsys.pci_devices4.EtherDevice.totalTxIdle            0                       # Total number of TxIdle written to ISR (Count)
testsys.pci_devices4.EtherDevice.coalescedTxIdle          nan                       # Average number of TxIdle's coalesced into each post ((Count/Count))
testsys.pci_devices4.EtherDevice.postedTxDesc            0                       # Number of TxDesc interrupts posted to CPU (Count)
testsys.pci_devices4.EtherDevice.totalTxDesc            0                       # Total number of TxDesc written to ISR (Count)
testsys.pci_devices4.EtherDevice.coalescedTxDesc          nan                       # Average number of TxDesc's coalesced into each post ((Count/Count))
testsys.pci_devices4.EtherDevice.postedRxOrn            0                       # Number of RxOrn posted to CPU (Count)
testsys.pci_devices4.EtherDevice.totalRxOrn            0                       # Total number of RxOrn written to ISR (Count)
testsys.pci_devices4.EtherDevice.coalescedRxOrn          nan                       # Average number of RxOrn's coalesced into each post ((Count/Count))
testsys.pci_devices4.EtherDevice.coalescedTotal          nan                       # Average number of interrupts coalesced into each post ((Count/Count))
testsys.pci_devices4.EtherDevice.droppedPackets            0                       # Number of packets dropped (Count)
testsys.pci_devices4.power_state.pwrStateResidencyTicks::UNDEFINED 583878009750                       # Cumulative time (in ticks) in various power states (Tick)
testsys.realview.bootmem.power_state.pwrStateResidencyTicks::UNDEFINED 583878009750                       # Cumulative time (in ticks) in various power states (Tick)
testsys.realview.clock24MHz.clock               41667                       # Clock period in ticks (Tick)
testsys.realview.clock32KHz.clock            31250000                       # Clock period in ticks (Tick)
testsys.realview.dcc.osc_cpu.clock              16667                       # Clock period in ticks (Tick)
testsys.realview.dcc.osc_ddr.clock              25000                       # Clock period in ticks (Tick)
testsys.realview.dcc.osc_hsbm.clock             25000                       # Clock period in ticks (Tick)
testsys.realview.dcc.osc_pxl.clock              42105                       # Clock period in ticks (Tick)
testsys.realview.dcc.osc_smb.clock              20000                       # Clock period in ticks (Tick)
testsys.realview.dcc.osc_sys.clock              16667                       # Clock period in ticks (Tick)
testsys.realview.el2_watchdog.power_state.pwrStateResidencyTicks::UNDEFINED 583878009750                       # Cumulative time (in ticks) in various power states (Tick)
testsys.realview.energy_ctrl.power_state.pwrStateResidencyTicks::UNDEFINED 583878009750                       # Cumulative time (in ticks) in various power states (Tick)
testsys.realview.flash0.power_state.pwrStateResidencyTicks::UNDEFINED 583878009750                       # Cumulative time (in ticks) in various power states (Tick)
testsys.realview.flash1.power_state.pwrStateResidencyTicks::UNDEFINED 583878009750                       # Cumulative time (in ticks) in various power states (Tick)
testsys.realview.generic_timer_mem.frames0.power_state.pwrStateResidencyTicks::UNDEFINED 583878009750                       # Cumulative time (in ticks) in various power states (Tick)
testsys.realview.generic_timer_mem.frames1.power_state.pwrStateResidencyTicks::UNDEFINED 583878009750                       # Cumulative time (in ticks) in various power states (Tick)
testsys.realview.generic_timer_mem.power_state.pwrStateResidencyTicks::UNDEFINED 583878009750                       # Cumulative time (in ticks) in various power states (Tick)
testsys.realview.gic.power_state.pwrStateResidencyTicks::UNDEFINED 583878009750                       # Cumulative time (in ticks) in various power states (Tick)
testsys.realview.gicv2m.power_state.pwrStateResidencyTicks::UNDEFINED 583878009750                       # Cumulative time (in ticks) in various power states (Tick)
testsys.realview.io_voltage.voltage          3.300000                       # Voltage in Volts (Volt)
testsys.realview.kmi0.power_state.pwrStateResidencyTicks::UNDEFINED 583878009750                       # Cumulative time (in ticks) in various power states (Tick)
testsys.realview.kmi1.power_state.pwrStateResidencyTicks::UNDEFINED 583878009750                       # Cumulative time (in ticks) in various power states (Tick)
testsys.realview.mcc.osc_clcd.clock             42105                       # Clock period in ticks (Tick)
testsys.realview.mcc.osc_mcc.clock              20000                       # Clock period in ticks (Tick)
testsys.realview.mcc.osc_peripheral.clock        41667                       # Clock period in ticks (Tick)
testsys.realview.mcc.osc_system_bus.clock        41667                       # Clock period in ticks (Tick)
testsys.realview.non_trusted_sram.power_state.pwrStateResidencyTicks::UNDEFINED 583878009750                       # Cumulative time (in ticks) in various power states (Tick)
testsys.realview.pci_host.power_state.pwrStateResidencyTicks::UNDEFINED 583878009750                       # Cumulative time (in ticks) in various power states (Tick)
testsys.realview.pwr_ctrl.power_state.pwrStateResidencyTicks::UNDEFINED 583878009750                       # Cumulative time (in ticks) in various power states (Tick)
testsys.realview.realview_io.power_state.pwrStateResidencyTicks::UNDEFINED 583878009750                       # Cumulative time (in ticks) in various power states (Tick)
testsys.realview.rtc.power_state.pwrStateResidencyTicks::UNDEFINED 583878009750                       # Cumulative time (in ticks) in various power states (Tick)
testsys.realview.system_watchdog.power_state.pwrStateResidencyTicks::UNDEFINED 583878009750                       # Cumulative time (in ticks) in various power states (Tick)
testsys.realview.trusted_sram.power_state.pwrStateResidencyTicks::UNDEFINED 583878009750                       # Cumulative time (in ticks) in various power states (Tick)
testsys.realview.trusted_watchdog.power_state.pwrStateResidencyTicks::UNDEFINED 583878009750                       # Cumulative time (in ticks) in various power states (Tick)
testsys.realview.uart0.power_state.pwrStateResidencyTicks::UNDEFINED 583878009750                       # Cumulative time (in ticks) in various power states (Tick)
testsys.realview.uart1.power_state.pwrStateResidencyTicks::UNDEFINED 583878009750                       # Cumulative time (in ticks) in various power states (Tick)
testsys.realview.uart2.power_state.pwrStateResidencyTicks::UNDEFINED 583878009750                       # Cumulative time (in ticks) in various power states (Tick)
testsys.realview.uart3.power_state.pwrStateResidencyTicks::UNDEFINED 583878009750                       # Cumulative time (in ticks) in various power states (Tick)
testsys.realview.vgic.power_state.pwrStateResidencyTicks::UNDEFINED 583878009750                       # Cumulative time (in ticks) in various power states (Tick)
testsys.realview.vio0.power_state.pwrStateResidencyTicks::UNDEFINED 583878009750                       # Cumulative time (in ticks) in various power states (Tick)
testsys.realview.vio1.power_state.pwrStateResidencyTicks::UNDEFINED 583878009750                       # Cumulative time (in ticks) in various power states (Tick)
testsys.realview.vram.power_state.pwrStateResidencyTicks::UNDEFINED 583878009750                       # Cumulative time (in ticks) in various power states (Tick)
testsys.realview.watchdog.power_state.pwrStateResidencyTicks::UNDEFINED 583878009750                       # Cumulative time (in ticks) in various power states (Tick)
testsys.voltage_domain.voltage                      1                       # Voltage in Volts (Volt)
testsys.workload.inst.arm                           0                       # number of arm instructions executed (Count)
testsys.workload.inst.quiesce                    1836                       # number of quiesce instructions executed (Count)

---------- End Simulation Statistics   ----------
