
---------- Begin Simulation Statistics ----------
simSeconds                                   1.145093                       # Number of seconds simulated (Second)
simTicks                                 1145092787974                       # Number of ticks simulated (Tick)
finalTick                                12802455725672                       # Number of ticks from beginning of simulation (restored from checkpoints and never reset) (Tick)
simFreq                                  1000000000000                       # The number of ticks per simulated second ((Tick/Second))
hostSeconds                                   4948.28                       # Real time elapsed on the host (Second)
hostTickRate                                231412348                       # The number of ticks simulated per host second (ticks/s) ((Tick/Second))
hostMemory                                    4047884                       # Number of bytes of host memory used (Byte)
simInsts                                   5108206299                       # Number of instructions simulated (Count)
simOps                                     6072807854                       # Number of ops (including micro ops) simulated (Count)
hostInstRate                                  1032320                       # Simulator instruction rate (inst/s) ((Count/Second))
hostOpRate                                    1227257                       # Simulator op (including micro ops) rate (op/s) ((Count/Second))
system.cache_hierarchy.ruby_system.delayHistogram::bucket_size          128                       # delay histogram for all message (Unspecified)
system.cache_hierarchy.ruby_system.delayHistogram::max_bucket         1279                       # delay histogram for all message (Unspecified)
system.cache_hierarchy.ruby_system.delayHistogram::samples    144146093                       # delay histogram for all message (Unspecified)
system.cache_hierarchy.ruby_system.delayHistogram::mean     0.037744                       # delay histogram for all message (Unspecified)
system.cache_hierarchy.ruby_system.delayHistogram::stdev     0.595285                       # delay histogram for all message (Unspecified)
system.cache_hierarchy.ruby_system.delayHistogram |   144145910    100.00%    100.00% |         182      0.00%    100.00% |           0      0.00%    100.00% |           0      0.00%    100.00% |           0      0.00%    100.00% |           0      0.00%    100.00% |           0      0.00%    100.00% |           0      0.00%    100.00% |           1      0.00%    100.00% |           0      0.00%    100.00% # delay histogram for all message (Unspecified)
system.cache_hierarchy.ruby_system.delayHistogram::total    144146093                       # delay histogram for all message (Unspecified)
system.cache_hierarchy.ruby_system.m_outstandReqHistSeqr::bucket_size            1                       (Unspecified)
system.cache_hierarchy.ruby_system.m_outstandReqHistSeqr::max_bucket            9                       (Unspecified)
system.cache_hierarchy.ruby_system.m_outstandReqHistSeqr::samples   2180620744                       (Unspecified)
system.cache_hierarchy.ruby_system.m_outstandReqHistSeqr::mean     1.004876                       (Unspecified)
system.cache_hierarchy.ruby_system.m_outstandReqHistSeqr::gmean     1.003385                       (Unspecified)
system.cache_hierarchy.ruby_system.m_outstandReqHistSeqr::stdev     0.069654                       (Unspecified)
system.cache_hierarchy.ruby_system.m_outstandReqHistSeqr |           0      0.00%      0.00% |  2169989097     99.51%     99.51% |    10631647      0.49%    100.00% |           0      0.00%    100.00% |           0      0.00%    100.00% |           0      0.00%    100.00% |           0      0.00%    100.00% |           0      0.00%    100.00% |           0      0.00%    100.00% |           0      0.00%    100.00% (Unspecified)
system.cache_hierarchy.ruby_system.m_outstandReqHistSeqr::total   2180620744                       (Unspecified)
system.cache_hierarchy.ruby_system.m_latencyHistSeqr::bucket_size          256                       (Unspecified)
system.cache_hierarchy.ruby_system.m_latencyHistSeqr::max_bucket         2559                       (Unspecified)
system.cache_hierarchy.ruby_system.m_latencyHistSeqr::samples   2180620743                       (Unspecified)
system.cache_hierarchy.ruby_system.m_latencyHistSeqr::mean     2.143650                       (Unspecified)
system.cache_hierarchy.ruby_system.m_latencyHistSeqr::gmean     1.045018                       (Unspecified)
system.cache_hierarchy.ruby_system.m_latencyHistSeqr::stdev    16.905077                       (Unspecified)
system.cache_hierarchy.ruby_system.m_latencyHistSeqr |  2180300054     99.99%     99.99% |       53072      0.00%     99.99% |       57008      0.00%     99.99% |       74740      0.00%     99.99% |      134354      0.01%    100.00% |        1479      0.00%    100.00% |          36      0.00%    100.00% |           0      0.00%    100.00% |           0      0.00%    100.00% |           0      0.00%    100.00% (Unspecified)
system.cache_hierarchy.ruby_system.m_latencyHistSeqr::total   2180620743                       (Unspecified)
system.cache_hierarchy.ruby_system.m_hitLatencyHistSeqr::bucket_size            1                       (Unspecified)
system.cache_hierarchy.ruby_system.m_hitLatencyHistSeqr::max_bucket            9                       (Unspecified)
system.cache_hierarchy.ruby_system.m_hitLatencyHistSeqr::samples   2156592046                       (Unspecified)
system.cache_hierarchy.ruby_system.m_hitLatencyHistSeqr::mean            1                       (Unspecified)
system.cache_hierarchy.ruby_system.m_hitLatencyHistSeqr::gmean            1                       (Unspecified)
system.cache_hierarchy.ruby_system.m_hitLatencyHistSeqr |           0      0.00%      0.00% |  2156592046    100.00%    100.00% |           0      0.00%    100.00% |           0      0.00%    100.00% |           0      0.00%    100.00% |           0      0.00%    100.00% |           0      0.00%    100.00% |           0      0.00%    100.00% |           0      0.00%    100.00% |           0      0.00%    100.00% (Unspecified)
system.cache_hierarchy.ruby_system.m_hitLatencyHistSeqr::total   2156592046                       (Unspecified)
system.cache_hierarchy.ruby_system.m_missLatencyHistSeqr::bucket_size          256                       (Unspecified)
system.cache_hierarchy.ruby_system.m_missLatencyHistSeqr::max_bucket         2559                       (Unspecified)
system.cache_hierarchy.ruby_system.m_missLatencyHistSeqr::samples     24028697                       (Unspecified)
system.cache_hierarchy.ruby_system.m_missLatencyHistSeqr::mean   104.787018                       (Unspecified)
system.cache_hierarchy.ruby_system.m_missLatencyHistSeqr::gmean    54.386452                       (Unspecified)
system.cache_hierarchy.ruby_system.m_missLatencyHistSeqr::stdev   123.619700                       (Unspecified)
system.cache_hierarchy.ruby_system.m_missLatencyHistSeqr |    23708008     98.67%     98.67% |       53072      0.22%     98.89% |       57008      0.24%     99.12% |       74740      0.31%     99.43% |      134354      0.56%     99.99% |        1479      0.01%    100.00% |          36      0.00%    100.00% |           0      0.00%    100.00% |           0      0.00%    100.00% |           0      0.00%    100.00% (Unspecified)
system.cache_hierarchy.ruby_system.m_missLatencyHistSeqr::total     24028697                       (Unspecified)
system.cache_hierarchy.ruby_system.delayVCHist.vnet_0::bucket_size          128                       # delay histogram for vnet_0 (Unspecified)
system.cache_hierarchy.ruby_system.delayVCHist.vnet_0::max_bucket         1279                       # delay histogram for vnet_0 (Unspecified)
system.cache_hierarchy.ruby_system.delayVCHist.vnet_0::samples     65119580                       # delay histogram for vnet_0 (Unspecified)
system.cache_hierarchy.ruby_system.delayVCHist.vnet_0::mean     0.078369                       # delay histogram for vnet_0 (Unspecified)
system.cache_hierarchy.ruby_system.delayVCHist.vnet_0::stdev     0.868927                       # delay histogram for vnet_0 (Unspecified)
system.cache_hierarchy.ruby_system.delayVCHist.vnet_0 |    65119397    100.00%    100.00% |         182      0.00%    100.00% |           0      0.00%    100.00% |           0      0.00%    100.00% |           0      0.00%    100.00% |           0      0.00%    100.00% |           0      0.00%    100.00% |           0      0.00%    100.00% |           1      0.00%    100.00% |           0      0.00%    100.00% # delay histogram for vnet_0 (Unspecified)
system.cache_hierarchy.ruby_system.delayVCHist.vnet_0::total     65119580                       # delay histogram for vnet_0 (Unspecified)
system.cache_hierarchy.ruby_system.delayVCHist.vnet_1::bucket_size            2                       # delay histogram for vnet_1 (Unspecified)
system.cache_hierarchy.ruby_system.delayVCHist.vnet_1::max_bucket           19                       # delay histogram for vnet_1 (Unspecified)
system.cache_hierarchy.ruby_system.delayVCHist.vnet_1::samples     73359036                       # delay histogram for vnet_1 (Unspecified)
system.cache_hierarchy.ruby_system.delayVCHist.vnet_1::mean     0.004588                       # delay histogram for vnet_1 (Unspecified)
system.cache_hierarchy.ruby_system.delayVCHist.vnet_1::stdev     0.152904                       # delay histogram for vnet_1 (Unspecified)
system.cache_hierarchy.ruby_system.delayVCHist.vnet_1 |    73280825     99.89%     99.89% |       24058      0.03%     99.93% |       22626      0.03%     99.96% |       27133      0.04%     99.99% |        4383      0.01%    100.00% |          11      0.00%    100.00% |           0      0.00%    100.00% |           0      0.00%    100.00% |           0      0.00%    100.00% |           0      0.00%    100.00% # delay histogram for vnet_1 (Unspecified)
system.cache_hierarchy.ruby_system.delayVCHist.vnet_1::total     73359036                       # delay histogram for vnet_1 (Unspecified)
system.cache_hierarchy.ruby_system.delayVCHist.vnet_2::bucket_size            1                       # delay histogram for vnet_2 (Unspecified)
system.cache_hierarchy.ruby_system.delayVCHist.vnet_2::max_bucket            9                       # delay histogram for vnet_2 (Unspecified)
system.cache_hierarchy.ruby_system.delayVCHist.vnet_2::samples      5667477                       # delay histogram for vnet_2 (Unspecified)
system.cache_hierarchy.ruby_system.delayVCHist.vnet_2::mean     0.000134                       # delay histogram for vnet_2 (Unspecified)
system.cache_hierarchy.ruby_system.delayVCHist.vnet_2::stdev     0.016376                       # delay histogram for vnet_2 (Unspecified)
system.cache_hierarchy.ruby_system.delayVCHist.vnet_2 |     5667097     99.99%     99.99% |           0      0.00%     99.99% |         380      0.01%    100.00% |           0      0.00%    100.00% |           0      0.00%    100.00% |           0      0.00%    100.00% |           0      0.00%    100.00% |           0      0.00%    100.00% |           0      0.00%    100.00% |           0      0.00%    100.00% # delay histogram for vnet_2 (Unspecified)
system.cache_hierarchy.ruby_system.delayVCHist.vnet_2::total      5667477                       # delay histogram for vnet_2 (Unspecified)
system.cache_hierarchy.ruby_system.Directory_Controller.Fetch |     5612451     44.14%     44.14% |     7102291     55.86%    100.00% (Unspecified)
system.cache_hierarchy.ruby_system.Directory_Controller.Fetch::total     12714742                       (Unspecified)
system.cache_hierarchy.ruby_system.Directory_Controller.Data |      144941     49.37%     49.37% |      148611     50.63%    100.00% (Unspecified)
system.cache_hierarchy.ruby_system.Directory_Controller.Data::total       293552                       (Unspecified)
system.cache_hierarchy.ruby_system.Directory_Controller.Memory_Data |     5612452     44.14%     44.14% |     7102290     55.86%    100.00% (Unspecified)
system.cache_hierarchy.ruby_system.Directory_Controller.Memory_Data::total     12714742                       (Unspecified)
system.cache_hierarchy.ruby_system.Directory_Controller.Memory_Ack |      145325     49.38%     49.38% |      148995     50.62%    100.00% (Unspecified)
system.cache_hierarchy.ruby_system.Directory_Controller.Memory_Ack::total       294320                       (Unspecified)
system.cache_hierarchy.ruby_system.Directory_Controller.DMA_READ |           3    100.00%    100.00% |           0      0.00%    100.00% (Unspecified)
system.cache_hierarchy.ruby_system.Directory_Controller.DMA_READ::total            3                       (Unspecified)
system.cache_hierarchy.ruby_system.Directory_Controller.DMA_WRITE |         384     50.00%     50.00% |         384     50.00%    100.00% (Unspecified)
system.cache_hierarchy.ruby_system.Directory_Controller.DMA_WRITE::total          768                       (Unspecified)
system.cache_hierarchy.ruby_system.Directory_Controller.CleanReplacement |     5463414     44.01%     44.01% |     6949584     55.99%    100.00% (Unspecified)
system.cache_hierarchy.ruby_system.Directory_Controller.CleanReplacement::total     12412998                       (Unspecified)
system.cache_hierarchy.ruby_system.Directory_Controller.I.Fetch |     5612451     44.14%     44.14% |     7102291     55.86%    100.00% (Unspecified)
system.cache_hierarchy.ruby_system.Directory_Controller.I.Fetch::total     12714742                       (Unspecified)
system.cache_hierarchy.ruby_system.Directory_Controller.I.DMA_READ |           1    100.00%    100.00% |           0      0.00%    100.00% (Unspecified)
system.cache_hierarchy.ruby_system.Directory_Controller.I.DMA_READ::total            1                       (Unspecified)
system.cache_hierarchy.ruby_system.Directory_Controller.I.DMA_WRITE |         384     50.00%     50.00% |         384     50.00%    100.00% (Unspecified)
system.cache_hierarchy.ruby_system.Directory_Controller.I.DMA_WRITE::total          768                       (Unspecified)
system.cache_hierarchy.ruby_system.Directory_Controller.ID.Memory_Data |           1    100.00%    100.00% |           0      0.00%    100.00% (Unspecified)
system.cache_hierarchy.ruby_system.Directory_Controller.ID.Memory_Data::total            1                       (Unspecified)
system.cache_hierarchy.ruby_system.Directory_Controller.ID_W.Memory_Ack |         384     50.00%     50.00% |         384     50.00%    100.00% (Unspecified)
system.cache_hierarchy.ruby_system.Directory_Controller.ID_W.Memory_Ack::total          768                       (Unspecified)
system.cache_hierarchy.ruby_system.Directory_Controller.M.Data |      144939     49.37%     49.37% |      148611     50.63%    100.00% (Unspecified)
system.cache_hierarchy.ruby_system.Directory_Controller.M.Data::total       293550                       (Unspecified)
system.cache_hierarchy.ruby_system.Directory_Controller.M.DMA_READ |           2    100.00%    100.00% |           0      0.00%    100.00% (Unspecified)
system.cache_hierarchy.ruby_system.Directory_Controller.M.DMA_READ::total            2                       (Unspecified)
system.cache_hierarchy.ruby_system.Directory_Controller.M.CleanReplacement |     5463414     44.01%     44.01% |     6949584     55.99%    100.00% (Unspecified)
system.cache_hierarchy.ruby_system.Directory_Controller.M.CleanReplacement::total     12412998                       (Unspecified)
system.cache_hierarchy.ruby_system.Directory_Controller.IM.Memory_Data |     5612451     44.14%     44.14% |     7102290     55.86%    100.00% (Unspecified)
system.cache_hierarchy.ruby_system.Directory_Controller.IM.Memory_Data::total     12714741                       (Unspecified)
system.cache_hierarchy.ruby_system.Directory_Controller.MI.Memory_Ack |      144939     49.37%     49.37% |      148611     50.63%    100.00% (Unspecified)
system.cache_hierarchy.ruby_system.Directory_Controller.MI.Memory_Ack::total       293550                       (Unspecified)
system.cache_hierarchy.ruby_system.Directory_Controller.M_DRD.Data |           2    100.00%    100.00% |           0      0.00%    100.00% (Unspecified)
system.cache_hierarchy.ruby_system.Directory_Controller.M_DRD.Data::total            2                       (Unspecified)
system.cache_hierarchy.ruby_system.Directory_Controller.M_DRDI.Memory_Ack |           2    100.00%    100.00% |           0      0.00%    100.00% (Unspecified)
system.cache_hierarchy.ruby_system.Directory_Controller.M_DRDI.Memory_Ack::total            2                       (Unspecified)
system.cache_hierarchy.ruby_system.DMA_Controller.ReadRequest |           3    100.00%    100.00% |           0      0.00%    100.00% (Unspecified)
system.cache_hierarchy.ruby_system.DMA_Controller.ReadRequest::total            3                       (Unspecified)
system.cache_hierarchy.ruby_system.DMA_Controller.WriteRequest |         768    100.00%    100.00% |           0      0.00%    100.00% (Unspecified)
system.cache_hierarchy.ruby_system.DMA_Controller.WriteRequest::total          768                       (Unspecified)
system.cache_hierarchy.ruby_system.DMA_Controller.Data |           3    100.00%    100.00% |           0      0.00%    100.00% (Unspecified)
system.cache_hierarchy.ruby_system.DMA_Controller.Data::total            3                       (Unspecified)
system.cache_hierarchy.ruby_system.DMA_Controller.Ack |         768    100.00%    100.00% |           0      0.00%    100.00% (Unspecified)
system.cache_hierarchy.ruby_system.DMA_Controller.Ack::total          768                       (Unspecified)
system.cache_hierarchy.ruby_system.DMA_Controller.READY.ReadRequest |           3    100.00%    100.00% |           0      0.00%    100.00% (Unspecified)
system.cache_hierarchy.ruby_system.DMA_Controller.READY.ReadRequest::total            3                       (Unspecified)
system.cache_hierarchy.ruby_system.DMA_Controller.READY.WriteRequest |         768    100.00%    100.00% |           0      0.00%    100.00% (Unspecified)
system.cache_hierarchy.ruby_system.DMA_Controller.READY.WriteRequest::total          768                       (Unspecified)
system.cache_hierarchy.ruby_system.DMA_Controller.BUSY_RD.Data |           3    100.00%    100.00% |           0      0.00%    100.00% (Unspecified)
system.cache_hierarchy.ruby_system.DMA_Controller.BUSY_RD.Data::total            3                       (Unspecified)
system.cache_hierarchy.ruby_system.DMA_Controller.BUSY_WR.Ack |         768    100.00%    100.00% |           0      0.00%    100.00% (Unspecified)
system.cache_hierarchy.ruby_system.DMA_Controller.BUSY_WR.Ack::total          768                       (Unspecified)
system.cache_hierarchy.ruby_system.L1Cache_Controller.Load |   234922813     50.13%     50.13% |   233688587     49.87%    100.00% (Unspecified)
system.cache_hierarchy.ruby_system.L1Cache_Controller.Load::total    468611400                       (Unspecified)
system.cache_hierarchy.ruby_system.L1Cache_Controller.Ifetch |   846964753     50.15%     50.15% |   841841856     49.85%    100.00% (Unspecified)
system.cache_hierarchy.ruby_system.L1Cache_Controller.Ifetch::total   1688806609                       (Unspecified)
system.cache_hierarchy.ruby_system.L1Cache_Controller.Store |    12099939     52.15%     52.15% |    11102796     47.85%    100.00% (Unspecified)
system.cache_hierarchy.ruby_system.L1Cache_Controller.Store::total     23202735                       (Unspecified)
system.cache_hierarchy.ruby_system.L1Cache_Controller.Inv |     1725339     50.19%     50.19% |     1712453     49.81%    100.00% (Unspecified)
system.cache_hierarchy.ruby_system.L1Cache_Controller.Inv::total      3437792                       (Unspecified)
system.cache_hierarchy.ruby_system.L1Cache_Controller.L1_Replacement |     9775977     49.98%     49.98% |     9783963     50.02%    100.00% (Unspecified)
system.cache_hierarchy.ruby_system.L1Cache_Controller.L1_Replacement::total     19559940                       (Unspecified)
system.cache_hierarchy.ruby_system.L1Cache_Controller.Fwd_GETX |       48902     49.32%     49.32% |       50260     50.68%    100.00% (Unspecified)
system.cache_hierarchy.ruby_system.L1Cache_Controller.Fwd_GETX::total        99162                       (Unspecified)
system.cache_hierarchy.ruby_system.L1Cache_Controller.Fwd_GETS |     1069928     50.22%     50.22% |     1060595     49.78%    100.00% (Unspecified)
system.cache_hierarchy.ruby_system.L1Cache_Controller.Fwd_GETS::total      2130523                       (Unspecified)
system.cache_hierarchy.ruby_system.L1Cache_Controller.Data |          74     15.32%     15.32% |         409     84.68%    100.00% (Unspecified)
system.cache_hierarchy.ruby_system.L1Cache_Controller.Data::total          483                       (Unspecified)
system.cache_hierarchy.ruby_system.L1Cache_Controller.Data_Exclusive |     9229206     49.94%     49.94% |     9250987     50.06%    100.00% (Unspecified)
system.cache_hierarchy.ruby_system.L1Cache_Controller.Data_Exclusive::total     18480193                       (Unspecified)
system.cache_hierarchy.ruby_system.L1Cache_Controller.DataS_fromL1 |     1060595     49.78%     49.78% |     1069928     50.22%    100.00% (Unspecified)
system.cache_hierarchy.ruby_system.L1Cache_Controller.DataS_fromL1::total      2130523                       (Unspecified)
system.cache_hierarchy.ruby_system.L1Cache_Controller.Data_all_Acks |      842547     50.92%     50.92% |      812029     49.08%    100.00% (Unspecified)
system.cache_hierarchy.ruby_system.L1Cache_Controller.Data_all_Acks::total      1654576                       (Unspecified)
system.cache_hierarchy.ruby_system.L1Cache_Controller.Ack |      879668     49.90%     49.90% |      883254     50.10%    100.00% (Unspecified)
system.cache_hierarchy.ruby_system.L1Cache_Controller.Ack::total      1762922                       (Unspecified)
system.cache_hierarchy.ruby_system.L1Cache_Controller.Ack_all |      879742     49.89%     49.89% |      883663     50.11%    100.00% (Unspecified)
system.cache_hierarchy.ruby_system.L1Cache_Controller.Ack_all::total      1763405                       (Unspecified)
system.cache_hierarchy.ruby_system.L1Cache_Controller.WB_Ack |     9164873     49.97%     49.97% |     9175858     50.03%    100.00% (Unspecified)
system.cache_hierarchy.ruby_system.L1Cache_Controller.WB_Ack::total     18340731                       (Unspecified)
system.cache_hierarchy.ruby_system.L1Cache_Controller.NP.Load |     9582927     49.90%     49.90% |     9621829     50.10%    100.00% (Unspecified)
system.cache_hierarchy.ruby_system.L1Cache_Controller.NP.Load::total     19204756                       (Unspecified)
system.cache_hierarchy.ruby_system.L1Cache_Controller.NP.Ifetch |       43259     54.71%     54.71% |       35808     45.29%    100.00% (Unspecified)
system.cache_hierarchy.ruby_system.L1Cache_Controller.NP.Ifetch::total        79067                       (Unspecified)
system.cache_hierarchy.ruby_system.L1Cache_Controller.NP.Store |      150815     54.22%     54.22% |      127350     45.78%    100.00% (Unspecified)
system.cache_hierarchy.ruby_system.L1Cache_Controller.NP.Store::total       278165                       (Unspecified)
system.cache_hierarchy.ruby_system.L1Cache_Controller.NP.Inv |      387032     50.18%     50.18% |      384218     49.82%    100.00% (Unspecified)
system.cache_hierarchy.ruby_system.L1Cache_Controller.NP.Inv::total       771250                       (Unspecified)
system.cache_hierarchy.ruby_system.L1Cache_Controller.I.Load |      923120     50.08%     50.08% |      920297     49.92%    100.00% (Unspecified)
system.cache_hierarchy.ruby_system.L1Cache_Controller.I.Load::total      1843417                       (Unspecified)
system.cache_hierarchy.ruby_system.L1Cache_Controller.I.Ifetch |      383020     50.26%     50.26% |      379003     49.74%    100.00% (Unspecified)
system.cache_hierarchy.ruby_system.L1Cache_Controller.I.Ifetch::total       762023                       (Unspecified)
system.cache_hierarchy.ruby_system.L1Cache_Controller.I.Store |       35461     50.61%     50.61% |       34613     49.39%    100.00% (Unspecified)
system.cache_hierarchy.ruby_system.L1Cache_Controller.I.Store::total        70074                       (Unspecified)
system.cache_hierarchy.ruby_system.L1Cache_Controller.I.Inv |           0      0.00%      0.00% |           1    100.00%    100.00% (Unspecified)
system.cache_hierarchy.ruby_system.L1Cache_Controller.I.Inv::total            1                       (Unspecified)
system.cache_hierarchy.ruby_system.L1Cache_Controller.I.L1_Replacement |       31780     51.41%     51.41% |       30037     48.59%    100.00% (Unspecified)
system.cache_hierarchy.ruby_system.L1Cache_Controller.I.L1_Replacement::total        61817                       (Unspecified)
system.cache_hierarchy.ruby_system.L1Cache_Controller.S.Load |   103607479     49.83%     49.83% |   104300965     50.17%    100.00% (Unspecified)
system.cache_hierarchy.ruby_system.L1Cache_Controller.S.Load::total    207908444                       (Unspecified)
system.cache_hierarchy.ruby_system.L1Cache_Controller.S.Ifetch |   846538474     50.15%     50.15% |   841427045     49.85%    100.00% (Unspecified)
system.cache_hierarchy.ruby_system.L1Cache_Controller.S.Ifetch::total   1687965519                       (Unspecified)
system.cache_hierarchy.ruby_system.L1Cache_Controller.S.Store |      893489     49.88%     49.88% |      897707     50.12%    100.00% (Unspecified)
system.cache_hierarchy.ruby_system.L1Cache_Controller.S.Store::total      1791196                       (Unspecified)
system.cache_hierarchy.ruby_system.L1Cache_Controller.S.Inv |     1299672     50.18%     50.18% |     1290138     49.82%    100.00% (Unspecified)
system.cache_hierarchy.ruby_system.L1Cache_Controller.S.Inv::total      2589810                       (Unspecified)
system.cache_hierarchy.ruby_system.L1Cache_Controller.S.L1_Replacement |      579324     50.05%     50.05% |      578068     49.95%    100.00% (Unspecified)
system.cache_hierarchy.ruby_system.L1Cache_Controller.S.L1_Replacement::total      1157392                       (Unspecified)
system.cache_hierarchy.ruby_system.L1Cache_Controller.E.Load |   105146657     50.36%     50.36% |   103659652     49.64%    100.00% (Unspecified)
system.cache_hierarchy.ruby_system.L1Cache_Controller.E.Load::total    208806309                       (Unspecified)
system.cache_hierarchy.ruby_system.L1Cache_Controller.E.Store |       57706     45.67%     45.67% |       68646     54.33%    100.00% (Unspecified)
system.cache_hierarchy.ruby_system.L1Cache_Controller.E.Store::total       126352                       (Unspecified)
system.cache_hierarchy.ruby_system.L1Cache_Controller.E.Inv |       17636     54.73%     54.73% |       14585     45.27%    100.00% (Unspecified)
system.cache_hierarchy.ruby_system.L1Cache_Controller.E.Inv::total        32221                       (Unspecified)
system.cache_hierarchy.ruby_system.L1Cache_Controller.E.L1_Replacement |     8967680     49.94%     49.94% |     8989266     50.06%    100.00% (Unspecified)
system.cache_hierarchy.ruby_system.L1Cache_Controller.E.L1_Replacement::total     17956946                       (Unspecified)
system.cache_hierarchy.ruby_system.L1Cache_Controller.E.Fwd_GETX |         487     72.36%     72.36% |         186     27.64%    100.00% (Unspecified)
system.cache_hierarchy.ruby_system.L1Cache_Controller.E.Fwd_GETX::total          673                       (Unspecified)
system.cache_hierarchy.ruby_system.L1Cache_Controller.E.Fwd_GETS |      185404     51.00%     51.00% |      178120     49.00%    100.00% (Unspecified)
system.cache_hierarchy.ruby_system.L1Cache_Controller.E.Fwd_GETS::total       363524                       (Unspecified)
system.cache_hierarchy.ruby_system.L1Cache_Controller.M.Load |    15662630     50.77%     50.77% |    15185844     49.23%    100.00% (Unspecified)
system.cache_hierarchy.ruby_system.L1Cache_Controller.M.Load::total     30848474                       (Unspecified)
system.cache_hierarchy.ruby_system.L1Cache_Controller.M.Store |    10962468     52.36%     52.36% |     9974480     47.64%    100.00% (Unspecified)
system.cache_hierarchy.ruby_system.L1Cache_Controller.M.Store::total     20936948                       (Unspecified)
system.cache_hierarchy.ruby_system.L1Cache_Controller.M.Inv |        7177     44.23%     44.23% |        9048     55.77%    100.00% (Unspecified)
system.cache_hierarchy.ruby_system.L1Cache_Controller.M.Inv::total        16225                       (Unspecified)
system.cache_hierarchy.ruby_system.L1Cache_Controller.M.L1_Replacement |      197193     51.38%     51.38% |      186592     48.62%    100.00% (Unspecified)
system.cache_hierarchy.ruby_system.L1Cache_Controller.M.L1_Replacement::total       383785                       (Unspecified)
system.cache_hierarchy.ruby_system.L1Cache_Controller.M.Fwd_GETX |       48415     49.16%     49.16% |       50074     50.84%    100.00% (Unspecified)
system.cache_hierarchy.ruby_system.L1Cache_Controller.M.Fwd_GETX::total        98489                       (Unspecified)
system.cache_hierarchy.ruby_system.L1Cache_Controller.M.Fwd_GETS |      884510     50.06%     50.06% |      882461     49.94%    100.00% (Unspecified)
system.cache_hierarchy.ruby_system.L1Cache_Controller.M.Fwd_GETS::total      1766971                       (Unspecified)
system.cache_hierarchy.ruby_system.L1Cache_Controller.IS.Inv |           0      0.00%      0.00% |           5    100.00%    100.00% (Unspecified)
system.cache_hierarchy.ruby_system.L1Cache_Controller.IS.Inv::total            5                       (Unspecified)
system.cache_hierarchy.ruby_system.L1Cache_Controller.IS.Data_Exclusive |     9229206     49.94%     49.94% |     9250986     50.06%    100.00% (Unspecified)
system.cache_hierarchy.ruby_system.L1Cache_Controller.IS.Data_Exclusive::total     18480192                       (Unspecified)
system.cache_hierarchy.ruby_system.L1Cache_Controller.IS.DataS_fromL1 |     1060595     49.78%     49.78% |     1069924     50.22%    100.00% (Unspecified)
system.cache_hierarchy.ruby_system.L1Cache_Controller.IS.DataS_fromL1::total      2130519                       (Unspecified)
system.cache_hierarchy.ruby_system.L1Cache_Controller.IS.Data_all_Acks |      642524     50.25%     50.25% |      636022     49.75%    100.00% (Unspecified)
system.cache_hierarchy.ruby_system.L1Cache_Controller.IS.Data_all_Acks::total      1278546                       (Unspecified)
system.cache_hierarchy.ruby_system.L1Cache_Controller.IM.Inv |           0      0.00%      0.00% |           3    100.00%    100.00% (Unspecified)
system.cache_hierarchy.ruby_system.L1Cache_Controller.IM.Inv::total            3                       (Unspecified)
system.cache_hierarchy.ruby_system.L1Cache_Controller.IM.Data |          74     15.32%     15.32% |         409     84.68%    100.00% (Unspecified)
system.cache_hierarchy.ruby_system.L1Cache_Controller.IM.Data::total          483                       (Unspecified)
system.cache_hierarchy.ruby_system.L1Cache_Controller.IM.Data_all_Acks |      200023     53.19%     53.19% |      176007     46.81%    100.00% (Unspecified)
system.cache_hierarchy.ruby_system.L1Cache_Controller.IM.Data_all_Acks::total       376030                       (Unspecified)
system.cache_hierarchy.ruby_system.L1Cache_Controller.SM.Inv |       13821     48.88%     48.88% |       14453     51.12%    100.00% (Unspecified)
system.cache_hierarchy.ruby_system.L1Cache_Controller.SM.Inv::total        28274                       (Unspecified)
system.cache_hierarchy.ruby_system.L1Cache_Controller.SM.Ack |      879668     49.90%     49.90% |      883254     50.10%    100.00% (Unspecified)
system.cache_hierarchy.ruby_system.L1Cache_Controller.SM.Ack::total      1762922                       (Unspecified)
system.cache_hierarchy.ruby_system.L1Cache_Controller.SM.Ack_all |      879742     49.89%     49.89% |      883663     50.11%    100.00% (Unspecified)
system.cache_hierarchy.ruby_system.L1Cache_Controller.SM.Ack_all::total      1763405                       (Unspecified)
system.cache_hierarchy.ruby_system.L1Cache_Controller.IS_I.Data_Exclusive |           0      0.00%      0.00% |           1    100.00%    100.00% (Unspecified)
system.cache_hierarchy.ruby_system.L1Cache_Controller.IS_I.Data_Exclusive::total            1                       (Unspecified)
system.cache_hierarchy.ruby_system.L1Cache_Controller.IS_I.DataS_fromL1 |           0      0.00%      0.00% |           4    100.00%    100.00% (Unspecified)
system.cache_hierarchy.ruby_system.L1Cache_Controller.IS_I.DataS_fromL1::total            4                       (Unspecified)
system.cache_hierarchy.ruby_system.L1Cache_Controller.M_I.Inv |           1     33.33%     33.33% |           2     66.67%    100.00% (Unspecified)
system.cache_hierarchy.ruby_system.L1Cache_Controller.M_I.Inv::total            3                       (Unspecified)
system.cache_hierarchy.ruby_system.L1Cache_Controller.M_I.Fwd_GETS |          14     50.00%     50.00% |          14     50.00%    100.00% (Unspecified)
system.cache_hierarchy.ruby_system.L1Cache_Controller.M_I.Fwd_GETS::total           28                       (Unspecified)
system.cache_hierarchy.ruby_system.L1Cache_Controller.M_I.WB_Ack |     9164858     49.97%     49.97% |     9175842     50.03%    100.00% (Unspecified)
system.cache_hierarchy.ruby_system.L1Cache_Controller.M_I.WB_Ack::total     18340700                       (Unspecified)
system.cache_hierarchy.ruby_system.L1Cache_Controller.SINK_WB_ACK.WB_Ack |          15     48.39%     48.39% |          16     51.61%    100.00% (Unspecified)
system.cache_hierarchy.ruby_system.L1Cache_Controller.SINK_WB_ACK.WB_Ack::total           31                       (Unspecified)
system.cache_hierarchy.ruby_system.L2Cache_Controller.L1_GET_INSTR |      427319     50.72%     50.72% |      415213     49.28%    100.00% (Unspecified)
system.cache_hierarchy.ruby_system.L2Cache_Controller.L1_GET_INSTR::total       842532                       (Unspecified)
system.cache_hierarchy.ruby_system.L2Cache_Controller.L1_GETS |    12312948     58.46%     58.46% |     8749021     41.54%    100.00% (Unspecified)
system.cache_hierarchy.ruby_system.L2Cache_Controller.L1_GETS::total     21061969                       (Unspecified)
system.cache_hierarchy.ruby_system.L2Cache_Controller.L1_GETX |      196552     51.41%     51.41% |      185784     48.59%    100.00% (Unspecified)
system.cache_hierarchy.ruby_system.L2Cache_Controller.L1_GETX::total       382336                       (Unspecified)
system.cache_hierarchy.ruby_system.L2Cache_Controller.L1_UPGRADE |       66696      3.70%      3.70% |     1733508     96.30%    100.00% (Unspecified)
system.cache_hierarchy.ruby_system.L2Cache_Controller.L1_UPGRADE::total      1800204                       (Unspecified)
system.cache_hierarchy.ruby_system.L2Cache_Controller.L1_PUTX |    11390144     62.10%     62.10% |     6950612     37.90%    100.00% (Unspecified)
system.cache_hierarchy.ruby_system.L2Cache_Controller.L1_PUTX::total     18340756                       (Unspecified)
system.cache_hierarchy.ruby_system.L2Cache_Controller.L1_PUTX_old |           4     66.67%     66.67% |           2     33.33%    100.00% (Unspecified)
system.cache_hierarchy.ruby_system.L2Cache_Controller.L1_PUTX_old::total            6                       (Unspecified)
system.cache_hierarchy.ruby_system.L2Cache_Controller.L2_Replacement |      138135     49.43%     49.43% |      141334     50.57%    100.00% (Unspecified)
system.cache_hierarchy.ruby_system.L2Cache_Controller.L2_Replacement::total       279469                       (Unspecified)
system.cache_hierarchy.ruby_system.L2Cache_Controller.L2_Replacement_clean |     5470218     44.02%     44.02% |     6956861     55.98%    100.00% (Unspecified)
system.cache_hierarchy.ruby_system.L2Cache_Controller.L2_Replacement_clean::total     12427079                       (Unspecified)
system.cache_hierarchy.ruby_system.L2Cache_Controller.Mem_Data |     5612451     44.14%     44.14% |     7102290     55.86%    100.00% (Unspecified)
system.cache_hierarchy.ruby_system.L2Cache_Controller.Mem_Data::total     12714741                       (Unspecified)
system.cache_hierarchy.ruby_system.L2Cache_Controller.Mem_Ack |     5608355     44.14%     44.14% |     7098195     55.86%    100.00% (Unspecified)
system.cache_hierarchy.ruby_system.L2Cache_Controller.Mem_Ack::total     12706550                       (Unspecified)
system.cache_hierarchy.ruby_system.L2Cache_Controller.WB_Data |       72164      4.05%      4.05% |     1711032     95.95%    100.00% (Unspecified)
system.cache_hierarchy.ruby_system.L2Cache_Controller.WB_Data::total      1783196                       (Unspecified)
system.cache_hierarchy.ruby_system.L2Cache_Controller.WB_Data_clean |      307706     84.64%     84.64% |       55849     15.36%    100.00% (Unspecified)
system.cache_hierarchy.ruby_system.L2Cache_Controller.WB_Data_clean::total       363555                       (Unspecified)
system.cache_hierarchy.ruby_system.L2Cache_Controller.Ack |      513541     67.64%     67.64% |      245649     32.36%    100.00% (Unspecified)
system.cache_hierarchy.ruby_system.L2Cache_Controller.Ack::total       759190                       (Unspecified)
system.cache_hierarchy.ruby_system.L2Cache_Controller.Ack_all |      579591     64.47%     64.47% |      319378     35.53%    100.00% (Unspecified)
system.cache_hierarchy.ruby_system.L2Cache_Controller.Ack_all::total       898969                       (Unspecified)
system.cache_hierarchy.ruby_system.L2Cache_Controller.Unblock |      371678     17.45%     17.45% |     1758845     82.55%    100.00% (Unspecified)
system.cache_hierarchy.ruby_system.L2Cache_Controller.Unblock::total      2130523                       (Unspecified)
system.cache_hierarchy.ruby_system.L2Cache_Controller.Exclusive_Unblock |    11846531     57.45%     57.45% |     8773097     42.55%    100.00% (Unspecified)
system.cache_hierarchy.ruby_system.L2Cache_Controller.Exclusive_Unblock::total     20619628                       (Unspecified)
system.cache_hierarchy.ruby_system.L2Cache_Controller.MEM_Inv |           4    100.00%    100.00% |           0      0.00%    100.00% (Unspecified)
system.cache_hierarchy.ruby_system.L2Cache_Controller.MEM_Inv::total            4                       (Unspecified)
system.cache_hierarchy.ruby_system.L2Cache_Controller.NP.L1_GET_INSTR |      236281     50.43%     50.43% |      232257     49.57%    100.00% (Unspecified)
system.cache_hierarchy.ruby_system.L2Cache_Controller.NP.L1_GET_INSTR::total       468538                       (Unspecified)
system.cache_hierarchy.ruby_system.L2Cache_Controller.NP.L1_GETS |     5283518     43.81%     43.81% |     6776614     56.19%    100.00% (Unspecified)
system.cache_hierarchy.ruby_system.L2Cache_Controller.NP.L1_GETS::total     12060132                       (Unspecified)
system.cache_hierarchy.ruby_system.L2Cache_Controller.NP.L1_GETX |       92652     49.79%     49.79% |       93420     50.21%    100.00% (Unspecified)
system.cache_hierarchy.ruby_system.L2Cache_Controller.NP.L1_GETX::total       186072                       (Unspecified)
system.cache_hierarchy.ruby_system.L2Cache_Controller.NP.L1_PUTX_old |           2     66.67%     66.67% |           1     33.33%    100.00% (Unspecified)
system.cache_hierarchy.ruby_system.L2Cache_Controller.NP.L1_PUTX_old::total            3                       (Unspecified)
system.cache_hierarchy.ruby_system.L2Cache_Controller.SS.L1_GET_INSTR |      109665     51.82%     51.82% |      101972     48.18%    100.00% (Unspecified)
system.cache_hierarchy.ruby_system.L2Cache_Controller.SS.L1_GET_INSTR::total       211637                       (Unspecified)
system.cache_hierarchy.ruby_system.L2Cache_Controller.SS.L1_GETS |      302361     82.10%     82.10% |       65915     17.90%    100.00% (Unspecified)
system.cache_hierarchy.ruby_system.L2Cache_Controller.SS.L1_GETS::total       368276                       (Unspecified)
system.cache_hierarchy.ruby_system.L2Cache_Controller.SS.L1_GETX |         107     22.15%     22.15% |         376     77.85%    100.00% (Unspecified)
system.cache_hierarchy.ruby_system.L2Cache_Controller.SS.L1_GETX::total          483                       (Unspecified)
system.cache_hierarchy.ruby_system.L2Cache_Controller.SS.L1_UPGRADE |       60838      3.45%      3.45% |     1702084     96.55%    100.00% (Unspecified)
system.cache_hierarchy.ruby_system.L2Cache_Controller.SS.L1_UPGRADE::total      1762922                       (Unspecified)
system.cache_hierarchy.ruby_system.L2Cache_Controller.SS.L1_PUTX |          28    100.00%    100.00% |           0      0.00%    100.00% (Unspecified)
system.cache_hierarchy.ruby_system.L2Cache_Controller.SS.L1_PUTX::total           28                       (Unspecified)
system.cache_hierarchy.ruby_system.L2Cache_Controller.SS.L2_Replacement |        7015     56.44%     56.44% |        5415     43.56%    100.00% (Unspecified)
system.cache_hierarchy.ruby_system.L2Cache_Controller.SS.L2_Replacement::total        12430                       (Unspecified)
system.cache_hierarchy.ruby_system.L2Cache_Controller.SS.L2_Replacement_clean |      557886     65.30%     65.30% |      296432     34.70%    100.00% (Unspecified)
system.cache_hierarchy.ruby_system.L2Cache_Controller.SS.L2_Replacement_clean::total       854318                       (Unspecified)
system.cache_hierarchy.ruby_system.L2Cache_Controller.M.L1_GETS |     6327208     98.03%     98.03% |      127444      1.97%    100.00% (Unspecified)
system.cache_hierarchy.ruby_system.L2Cache_Controller.M.L1_GETS::total      6454652                       (Unspecified)
system.cache_hierarchy.ruby_system.L2Cache_Controller.M.L1_GETX |       40347     44.44%     44.44% |       50449     55.56%    100.00% (Unspecified)
system.cache_hierarchy.ruby_system.L2Cache_Controller.M.L1_GETX::total        90796                       (Unspecified)
system.cache_hierarchy.ruby_system.L2Cache_Controller.M.L2_Replacement |      129721     48.98%     48.98% |      135141     51.02%    100.00% (Unspecified)
system.cache_hierarchy.ruby_system.L2Cache_Controller.M.L2_Replacement::total       264862                       (Unspecified)
system.cache_hierarchy.ruby_system.L2Cache_Controller.M.L2_Replacement_clean |     4890851     42.43%     42.43% |     6635640     57.57%    100.00% (Unspecified)
system.cache_hierarchy.ruby_system.L2Cache_Controller.M.L2_Replacement_clean::total     11526491                       (Unspecified)
system.cache_hierarchy.ruby_system.L2Cache_Controller.MT.L1_GETS |      371678     17.45%     17.45% |     1758845     82.55%    100.00% (Unspecified)
system.cache_hierarchy.ruby_system.L2Cache_Controller.MT.L1_GETS::total      2130523                       (Unspecified)
system.cache_hierarchy.ruby_system.L2Cache_Controller.MT.L1_GETX |       61481     62.00%     62.00% |       37681     38.00%    100.00% (Unspecified)
system.cache_hierarchy.ruby_system.L2Cache_Controller.MT.L1_GETX::total        99162                       (Unspecified)
system.cache_hierarchy.ruby_system.L2Cache_Controller.MT.L1_PUTX |    11390088     62.10%     62.10% |     6950612     37.90%    100.00% (Unspecified)
system.cache_hierarchy.ruby_system.L2Cache_Controller.MT.L1_PUTX::total     18340700                       (Unspecified)
system.cache_hierarchy.ruby_system.L2Cache_Controller.MT.L2_Replacement |        1399     64.26%     64.26% |         778     35.74%    100.00% (Unspecified)
system.cache_hierarchy.ruby_system.L2Cache_Controller.MT.L2_Replacement::total         2177                       (Unspecified)
system.cache_hierarchy.ruby_system.L2Cache_Controller.MT.L2_Replacement_clean |       21481     46.43%     46.43% |       24789     53.57%    100.00% (Unspecified)
system.cache_hierarchy.ruby_system.L2Cache_Controller.MT.L2_Replacement_clean::total        46270                       (Unspecified)
system.cache_hierarchy.ruby_system.L2Cache_Controller.MT.MEM_Inv |           2    100.00%    100.00% |           0      0.00%    100.00% (Unspecified)
system.cache_hierarchy.ruby_system.L2Cache_Controller.MT.MEM_Inv::total            2                       (Unspecified)
system.cache_hierarchy.ruby_system.L2Cache_Controller.M_I.L1_GET_INSTR |         814     56.49%     56.49% |         627     43.51%    100.00% (Unspecified)
system.cache_hierarchy.ruby_system.L2Cache_Controller.M_I.L1_GET_INSTR::total         1441                       (Unspecified)
system.cache_hierarchy.ruby_system.L2Cache_Controller.M_I.L1_GETS |         611     62.92%     62.92% |         360     37.08%    100.00% (Unspecified)
system.cache_hierarchy.ruby_system.L2Cache_Controller.M_I.L1_GETS::total          971                       (Unspecified)
system.cache_hierarchy.ruby_system.L2Cache_Controller.M_I.L1_GETX |         186     98.41%     98.41% |           3      1.59%    100.00% (Unspecified)
system.cache_hierarchy.ruby_system.L2Cache_Controller.M_I.L1_GETX::total          189                       (Unspecified)
system.cache_hierarchy.ruby_system.L2Cache_Controller.M_I.Mem_Ack |     5608355     44.14%     44.14% |     7098195     55.86%    100.00% (Unspecified)
system.cache_hierarchy.ruby_system.L2Cache_Controller.M_I.Mem_Ack::total     12706550                       (Unspecified)
system.cache_hierarchy.ruby_system.L2Cache_Controller.MT_I.WB_Data |        1386     64.65%     64.65% |         758     35.35%    100.00% (Unspecified)
system.cache_hierarchy.ruby_system.L2Cache_Controller.MT_I.WB_Data::total         2144                       (Unspecified)
system.cache_hierarchy.ruby_system.L2Cache_Controller.MT_I.Ack_all |          15     42.86%     42.86% |          20     57.14%    100.00% (Unspecified)
system.cache_hierarchy.ruby_system.L2Cache_Controller.MT_I.Ack_all::total           35                       (Unspecified)
system.cache_hierarchy.ruby_system.L2Cache_Controller.MT_I.MEM_Inv |           2    100.00%    100.00% |           0      0.00%    100.00% (Unspecified)
system.cache_hierarchy.ruby_system.L2Cache_Controller.MT_I.MEM_Inv::total            2                       (Unspecified)
system.cache_hierarchy.ruby_system.L2Cache_Controller.MCT_I.L1_PUTX_old |           2     66.67%     66.67% |           1     33.33%    100.00% (Unspecified)
system.cache_hierarchy.ruby_system.L2Cache_Controller.MCT_I.L1_PUTX_old::total            3                       (Unspecified)
system.cache_hierarchy.ruby_system.L2Cache_Controller.MCT_I.WB_Data |        6804     48.32%     48.32% |        7277     51.68%    100.00% (Unspecified)
system.cache_hierarchy.ruby_system.L2Cache_Controller.MCT_I.WB_Data::total        14081                       (Unspecified)
system.cache_hierarchy.ruby_system.L2Cache_Controller.MCT_I.WB_Data_clean |           2     66.67%     66.67% |           1     33.33%    100.00% (Unspecified)
system.cache_hierarchy.ruby_system.L2Cache_Controller.MCT_I.WB_Data_clean::total            3                       (Unspecified)
system.cache_hierarchy.ruby_system.L2Cache_Controller.MCT_I.Ack_all |       14675     45.59%     45.59% |       17511     54.41%    100.00% (Unspecified)
system.cache_hierarchy.ruby_system.L2Cache_Controller.MCT_I.Ack_all::total        32186                       (Unspecified)
system.cache_hierarchy.ruby_system.L2Cache_Controller.I_I.L1_GET_INSTR |           0      0.00%      0.00% |           1    100.00%    100.00% (Unspecified)
system.cache_hierarchy.ruby_system.L2Cache_Controller.I_I.L1_GET_INSTR::total            1                       (Unspecified)
system.cache_hierarchy.ruby_system.L2Cache_Controller.I_I.L1_GETS |           1    100.00%    100.00% |           0      0.00%    100.00% (Unspecified)
system.cache_hierarchy.ruby_system.L2Cache_Controller.I_I.L1_GETS::total            1                       (Unspecified)
system.cache_hierarchy.ruby_system.L2Cache_Controller.I_I.Ack |      506526     67.83%     67.83% |      240234     32.17%    100.00% (Unspecified)
system.cache_hierarchy.ruby_system.L2Cache_Controller.I_I.Ack::total       746760                       (Unspecified)
system.cache_hierarchy.ruby_system.L2Cache_Controller.I_I.Ack_all |      557886     65.30%     65.30% |      296432     34.70%    100.00% (Unspecified)
system.cache_hierarchy.ruby_system.L2Cache_Controller.I_I.Ack_all::total       854318                       (Unspecified)
system.cache_hierarchy.ruby_system.L2Cache_Controller.S_I.Ack |        7015     56.44%     56.44% |        5415     43.56%    100.00% (Unspecified)
system.cache_hierarchy.ruby_system.L2Cache_Controller.S_I.Ack::total        12430                       (Unspecified)
system.cache_hierarchy.ruby_system.L2Cache_Controller.S_I.Ack_all |        7015     56.44%     56.44% |        5415     43.56%    100.00% (Unspecified)
system.cache_hierarchy.ruby_system.L2Cache_Controller.S_I.Ack_all::total        12430                       (Unspecified)
system.cache_hierarchy.ruby_system.L2Cache_Controller.ISS.L1_GETS |       19620     56.72%     56.72% |       14970     43.28%    100.00% (Unspecified)
system.cache_hierarchy.ruby_system.L2Cache_Controller.ISS.L1_GETS::total        34590                       (Unspecified)
system.cache_hierarchy.ruby_system.L2Cache_Controller.ISS.L1_GETX |         324    100.00%    100.00% |           0      0.00%    100.00% (Unspecified)
system.cache_hierarchy.ruby_system.L2Cache_Controller.ISS.L1_GETX::total          324                       (Unspecified)
system.cache_hierarchy.ruby_system.L2Cache_Controller.ISS.Mem_Data |     5263898     43.77%     43.77% |     6761643     56.23%    100.00% (Unspecified)
system.cache_hierarchy.ruby_system.L2Cache_Controller.ISS.Mem_Data::total     12025541                       (Unspecified)
system.cache_hierarchy.ruby_system.L2Cache_Controller.IS.L1_GET_INSTR |       80559     50.06%     50.06% |       80356     49.94%    100.00% (Unspecified)
system.cache_hierarchy.ruby_system.L2Cache_Controller.IS.L1_GET_INSTR::total       160915                       (Unspecified)
system.cache_hierarchy.ruby_system.L2Cache_Controller.IS.Mem_Data |      255901     50.86%     50.86% |      247227     49.14%    100.00% (Unspecified)
system.cache_hierarchy.ruby_system.L2Cache_Controller.IS.Mem_Data::total       503128                       (Unspecified)
system.cache_hierarchy.ruby_system.L2Cache_Controller.IM.L1_GETS |         137    100.00%    100.00% |           0      0.00%    100.00% (Unspecified)
system.cache_hierarchy.ruby_system.L2Cache_Controller.IM.L1_GETS::total          137                       (Unspecified)
system.cache_hierarchy.ruby_system.L2Cache_Controller.IM.L1_GETX |         231     88.85%     88.85% |          29     11.15%    100.00% (Unspecified)
system.cache_hierarchy.ruby_system.L2Cache_Controller.IM.L1_GETX::total          260                       (Unspecified)
system.cache_hierarchy.ruby_system.L2Cache_Controller.IM.Mem_Data |       92652     49.79%     49.79% |       93420     50.21%    100.00% (Unspecified)
system.cache_hierarchy.ruby_system.L2Cache_Controller.IM.Mem_Data::total       186072                       (Unspecified)
system.cache_hierarchy.ruby_system.L2Cache_Controller.SS_MB.L1_GETS |        7026     64.31%     64.31% |        3899     35.69%    100.00% (Unspecified)
system.cache_hierarchy.ruby_system.L2Cache_Controller.SS_MB.L1_GETS::total        10925                       (Unspecified)
system.cache_hierarchy.ruby_system.L2Cache_Controller.SS_MB.L1_GETX |          53      1.38%      1.38% |        3793     98.62%    100.00% (Unspecified)
system.cache_hierarchy.ruby_system.L2Cache_Controller.SS_MB.L1_GETX::total         3846                       (Unspecified)
system.cache_hierarchy.ruby_system.L2Cache_Controller.SS_MB.L1_UPGRADE |          54      0.19%      0.19% |       28220     99.81%    100.00% (Unspecified)
system.cache_hierarchy.ruby_system.L2Cache_Controller.SS_MB.L1_UPGRADE::total        28274                       (Unspecified)
system.cache_hierarchy.ruby_system.L2Cache_Controller.SS_MB.Exclusive_Unblock |       60945      3.46%      3.46% |     1702460     96.54%    100.00% (Unspecified)
system.cache_hierarchy.ruby_system.L2Cache_Controller.SS_MB.Exclusive_Unblock::total      1763405                       (Unspecified)
system.cache_hierarchy.ruby_system.L2Cache_Controller.MT_MB.L1_GETS |         788     44.72%     44.72% |         974     55.28%    100.00% (Unspecified)
system.cache_hierarchy.ruby_system.L2Cache_Controller.MT_MB.L1_GETS::total         1762                       (Unspecified)
system.cache_hierarchy.ruby_system.L2Cache_Controller.MT_MB.L1_GETX |        1171     97.26%     97.26% |          33      2.74%    100.00% (Unspecified)
system.cache_hierarchy.ruby_system.L2Cache_Controller.MT_MB.L1_GETX::total         1204                       (Unspecified)
system.cache_hierarchy.ruby_system.L2Cache_Controller.MT_MB.Exclusive_Unblock |    11785586     62.50%     62.50% |     7070637     37.50%    100.00% (Unspecified)
system.cache_hierarchy.ruby_system.L2Cache_Controller.MT_MB.Exclusive_Unblock::total     18856223                       (Unspecified)
system.cache_hierarchy.ruby_system.L2Cache_Controller.MT_IIB.L1_PUTX |          28    100.00%    100.00% |           0      0.00%    100.00% (Unspecified)
system.cache_hierarchy.ruby_system.L2Cache_Controller.MT_IIB.L1_PUTX::total           28                       (Unspecified)
system.cache_hierarchy.ruby_system.L2Cache_Controller.MT_IIB.WB_Data |       63974      3.62%      3.62% |     1702997     96.38%    100.00% (Unspecified)
system.cache_hierarchy.ruby_system.L2Cache_Controller.MT_IIB.WB_Data::total      1766971                       (Unspecified)
system.cache_hierarchy.ruby_system.L2Cache_Controller.MT_IIB.WB_Data_clean |      307704     84.64%     84.64% |       55848     15.36%    100.00% (Unspecified)
system.cache_hierarchy.ruby_system.L2Cache_Controller.MT_IIB.WB_Data_clean::total       363552                       (Unspecified)
system.cache_hierarchy.ruby_system.L2Cache_Controller.MT_SB.L1_UPGRADE |        5804     64.43%     64.43% |        3204     35.57%    100.00% (Unspecified)
system.cache_hierarchy.ruby_system.L2Cache_Controller.MT_SB.L1_UPGRADE::total         9008                       (Unspecified)
system.cache_hierarchy.ruby_system.L2Cache_Controller.MT_SB.Unblock |      371678     17.45%     17.45% |     1758845     82.55%    100.00% (Unspecified)
system.cache_hierarchy.ruby_system.L2Cache_Controller.MT_SB.Unblock::total      2130523                       (Unspecified)
system.cache_hierarchy.ruby_system.RequestType.LD.latency_hist_seqr::bucket_size          256                       (Unspecified)
system.cache_hierarchy.ruby_system.RequestType.LD.latency_hist_seqr::max_bucket         2559                       (Unspecified)
system.cache_hierarchy.ruby_system.RequestType.LD.latency_hist_seqr::samples    468611399                       (Unspecified)
system.cache_hierarchy.ruby_system.RequestType.LD.latency_hist_seqr::mean     5.973636                       (Unspecified)
system.cache_hierarchy.ruby_system.RequestType.LD.latency_hist_seqr::gmean     1.200974                       (Unspecified)
system.cache_hierarchy.ruby_system.RequestType.LD.latency_hist_seqr::stdev    35.318547                       (Unspecified)
system.cache_hierarchy.ruby_system.RequestType.LD.latency_hist_seqr |   468302990     99.93%     99.93% |       48377      0.01%     99.94% |       56552      0.01%     99.96% |       73819      0.02%     99.97% |      128237      0.03%    100.00% |        1389      0.00%    100.00% |          35      0.00%    100.00% |           0      0.00%    100.00% |           0      0.00%    100.00% |           0      0.00%    100.00% (Unspecified)
system.cache_hierarchy.ruby_system.RequestType.LD.latency_hist_seqr::total    468611399                       (Unspecified)
system.cache_hierarchy.ruby_system.RequestType.LD.hit_latency_hist_seqr::bucket_size            1                       (Unspecified)
system.cache_hierarchy.ruby_system.RequestType.LD.hit_latency_hist_seqr::max_bucket            9                       (Unspecified)
system.cache_hierarchy.ruby_system.RequestType.LD.hit_latency_hist_seqr::samples    447563227                       (Unspecified)
system.cache_hierarchy.ruby_system.RequestType.LD.hit_latency_hist_seqr::mean            1                       (Unspecified)
system.cache_hierarchy.ruby_system.RequestType.LD.hit_latency_hist_seqr::gmean            1                       (Unspecified)
system.cache_hierarchy.ruby_system.RequestType.LD.hit_latency_hist_seqr |           0      0.00%      0.00% |   447563227    100.00%    100.00% |           0      0.00%    100.00% |           0      0.00%    100.00% |           0      0.00%    100.00% |           0      0.00%    100.00% |           0      0.00%    100.00% |           0      0.00%    100.00% |           0      0.00%    100.00% |           0      0.00%    100.00% (Unspecified)
system.cache_hierarchy.ruby_system.RequestType.LD.hit_latency_hist_seqr::total    447563227                       (Unspecified)
system.cache_hierarchy.ruby_system.RequestType.LD.miss_latency_hist_seqr::bucket_size          256                       (Unspecified)
system.cache_hierarchy.ruby_system.RequestType.LD.miss_latency_hist_seqr::max_bucket         2559                       (Unspecified)
system.cache_hierarchy.ruby_system.RequestType.LD.miss_latency_hist_seqr::samples     21048172                       (Unspecified)
system.cache_hierarchy.ruby_system.RequestType.LD.miss_latency_hist_seqr::mean   111.731819                       (Unspecified)
system.cache_hierarchy.ruby_system.RequestType.LD.miss_latency_hist_seqr::gmean    58.981619                       (Unspecified)
system.cache_hierarchy.ruby_system.RequestType.LD.miss_latency_hist_seqr::stdev   126.732046                       (Unspecified)
system.cache_hierarchy.ruby_system.RequestType.LD.miss_latency_hist_seqr |    20739763     98.53%     98.53% |       48377      0.23%     98.76% |       56552      0.27%     99.03% |       73819      0.35%     99.38% |      128237      0.61%     99.99% |        1389      0.01%    100.00% |          35      0.00%    100.00% |           0      0.00%    100.00% |           0      0.00%    100.00% |           0      0.00%    100.00% (Unspecified)
system.cache_hierarchy.ruby_system.RequestType.LD.miss_latency_hist_seqr::total     21048172                       (Unspecified)
system.cache_hierarchy.ruby_system.RequestType.ST.latency_hist_seqr::bucket_size          256                       (Unspecified)
system.cache_hierarchy.ruby_system.RequestType.ST.latency_hist_seqr::max_bucket         2559                       (Unspecified)
system.cache_hierarchy.ruby_system.RequestType.ST.latency_hist_seqr::samples     22713707                       (Unspecified)
system.cache_hierarchy.ruby_system.RequestType.ST.latency_hist_seqr::mean     3.062479                       (Unspecified)
system.cache_hierarchy.ruby_system.RequestType.ST.latency_hist_seqr::gmean     1.307323                       (Unspecified)
system.cache_hierarchy.ruby_system.RequestType.ST.latency_hist_seqr::stdev    11.787028                       (Unspecified)
system.cache_hierarchy.ruby_system.RequestType.ST.latency_hist_seqr |    22711969     99.99%     99.99% |        1096      0.00%    100.00% |          53      0.00%    100.00% |          97      0.00%    100.00% |         483      0.00%    100.00% |           9      0.00%    100.00% |           0      0.00%    100.00% |           0      0.00%    100.00% |           0      0.00%    100.00% |           0      0.00%    100.00% (Unspecified)
system.cache_hierarchy.ruby_system.RequestType.ST.latency_hist_seqr::total     22713707                       (Unspecified)
system.cache_hierarchy.ruby_system.RequestType.ST.hit_latency_hist_seqr::bucket_size            1                       (Unspecified)
system.cache_hierarchy.ruby_system.RequestType.ST.hit_latency_hist_seqr::max_bucket            9                       (Unspecified)
system.cache_hierarchy.ruby_system.RequestType.ST.hit_latency_hist_seqr::samples     20681502                       (Unspecified)
system.cache_hierarchy.ruby_system.RequestType.ST.hit_latency_hist_seqr::mean            1                       (Unspecified)
system.cache_hierarchy.ruby_system.RequestType.ST.hit_latency_hist_seqr::gmean            1                       (Unspecified)
system.cache_hierarchy.ruby_system.RequestType.ST.hit_latency_hist_seqr |           0      0.00%      0.00% |    20681502    100.00%    100.00% |           0      0.00%    100.00% |           0      0.00%    100.00% |           0      0.00%    100.00% |           0      0.00%    100.00% |           0      0.00%    100.00% |           0      0.00%    100.00% |           0      0.00%    100.00% |           0      0.00%    100.00% (Unspecified)
system.cache_hierarchy.ruby_system.RequestType.ST.hit_latency_hist_seqr::total     20681502                       (Unspecified)
system.cache_hierarchy.ruby_system.RequestType.ST.miss_latency_hist_seqr::bucket_size          256                       (Unspecified)
system.cache_hierarchy.ruby_system.RequestType.ST.miss_latency_hist_seqr::max_bucket         2559                       (Unspecified)
system.cache_hierarchy.ruby_system.RequestType.ST.miss_latency_hist_seqr::samples      2032205                       (Unspecified)
system.cache_hierarchy.ruby_system.RequestType.ST.miss_latency_hist_seqr::mean    24.052079                       (Unspecified)
system.cache_hierarchy.ruby_system.RequestType.ST.miss_latency_hist_seqr::gmean    19.989342                       (Unspecified)
system.cache_hierarchy.ruby_system.RequestType.ST.miss_latency_hist_seqr::stdev    32.695493                       (Unspecified)
system.cache_hierarchy.ruby_system.RequestType.ST.miss_latency_hist_seqr |     2030467     99.91%     99.91% |        1096      0.05%     99.97% |          53      0.00%     99.97% |          97      0.00%     99.98% |         483      0.02%    100.00% |           9      0.00%    100.00% |           0      0.00%    100.00% |           0      0.00%    100.00% |           0      0.00%    100.00% |           0      0.00%    100.00% (Unspecified)
system.cache_hierarchy.ruby_system.RequestType.ST.miss_latency_hist_seqr::total      2032205                       (Unspecified)
system.cache_hierarchy.ruby_system.RequestType.IFETCH.latency_hist_seqr::bucket_size          256                       (Unspecified)
system.cache_hierarchy.ruby_system.RequestType.IFETCH.latency_hist_seqr::max_bucket         2559                       (Unspecified)
system.cache_hierarchy.ruby_system.RequestType.IFETCH.latency_hist_seqr::samples   1688806609                       (Unspecified)
system.cache_hierarchy.ruby_system.RequestType.IFETCH.latency_hist_seqr::mean     1.064932                       (Unspecified)
system.cache_hierarchy.ruby_system.RequestType.IFETCH.latency_hist_seqr::gmean     1.002212                       (Unspecified)
system.cache_hierarchy.ruby_system.RequestType.IFETCH.latency_hist_seqr::stdev     3.878576                       (Unspecified)
system.cache_hierarchy.ruby_system.RequestType.IFETCH.latency_hist_seqr |  1688797784    100.00%    100.00% |        2095      0.00%    100.00% |         400      0.00%    100.00% |         795      0.00%    100.00% |        5460      0.00%    100.00% |          74      0.00%    100.00% |           1      0.00%    100.00% |           0      0.00%    100.00% |           0      0.00%    100.00% |           0      0.00%    100.00% (Unspecified)
system.cache_hierarchy.ruby_system.RequestType.IFETCH.latency_hist_seqr::total   1688806609                       (Unspecified)
system.cache_hierarchy.ruby_system.RequestType.IFETCH.hit_latency_hist_seqr::bucket_size            1                       (Unspecified)
system.cache_hierarchy.ruby_system.RequestType.IFETCH.hit_latency_hist_seqr::max_bucket            9                       (Unspecified)
system.cache_hierarchy.ruby_system.RequestType.IFETCH.hit_latency_hist_seqr::samples   1687965519                       (Unspecified)
system.cache_hierarchy.ruby_system.RequestType.IFETCH.hit_latency_hist_seqr::mean            1                       (Unspecified)
system.cache_hierarchy.ruby_system.RequestType.IFETCH.hit_latency_hist_seqr::gmean            1                       (Unspecified)
system.cache_hierarchy.ruby_system.RequestType.IFETCH.hit_latency_hist_seqr |           0      0.00%      0.00% |  1687965519    100.00%    100.00% |           0      0.00%    100.00% |           0      0.00%    100.00% |           0      0.00%    100.00% |           0      0.00%    100.00% |           0      0.00%    100.00% |           0      0.00%    100.00% |           0      0.00%    100.00% |           0      0.00%    100.00% (Unspecified)
system.cache_hierarchy.ruby_system.RequestType.IFETCH.hit_latency_hist_seqr::total   1687965519                       (Unspecified)
system.cache_hierarchy.ruby_system.RequestType.IFETCH.miss_latency_hist_seqr::bucket_size          256                       (Unspecified)
system.cache_hierarchy.ruby_system.RequestType.IFETCH.miss_latency_hist_seqr::max_bucket         2559                       (Unspecified)
system.cache_hierarchy.ruby_system.RequestType.IFETCH.miss_latency_hist_seqr::samples       841090                       (Unspecified)
system.cache_hierarchy.ruby_system.RequestType.IFETCH.miss_latency_hist_seqr::mean   131.376360                       (Unspecified)
system.cache_hierarchy.ruby_system.RequestType.IFETCH.miss_latency_hist_seqr::gmean    84.469957                       (Unspecified)
system.cache_hierarchy.ruby_system.RequestType.IFETCH.miss_latency_hist_seqr::stdev   114.959630                       (Unspecified)
system.cache_hierarchy.ruby_system.RequestType.IFETCH.miss_latency_hist_seqr |      832265     98.95%     98.95% |        2095      0.25%     99.20% |         400      0.05%     99.25% |         795      0.09%     99.34% |        5460      0.65%     99.99% |          74      0.01%    100.00% |           1      0.00%    100.00% |           0      0.00%    100.00% |           0      0.00%    100.00% |           0      0.00%    100.00% (Unspecified)
system.cache_hierarchy.ruby_system.RequestType.IFETCH.miss_latency_hist_seqr::total       841090                       (Unspecified)
system.cache_hierarchy.ruby_system.RequestType.RMW_Read.latency_hist_seqr::bucket_size          256                       (Unspecified)
system.cache_hierarchy.ruby_system.RequestType.RMW_Read.latency_hist_seqr::max_bucket         2559                       (Unspecified)
system.cache_hierarchy.ruby_system.RequestType.RMW_Read.latency_hist_seqr::samples       217836                       (Unspecified)
system.cache_hierarchy.ruby_system.RequestType.RMW_Read.latency_hist_seqr::mean    20.915606                       (Unspecified)
system.cache_hierarchy.ruby_system.RequestType.RMW_Read.latency_hist_seqr::gmean     2.447660                       (Unspecified)
system.cache_hierarchy.ruby_system.RequestType.RMW_Read.latency_hist_seqr::stdev    59.894322                       (Unspecified)
system.cache_hierarchy.ruby_system.RequestType.RMW_Read.latency_hist_seqr |      216439     99.36%     99.36% |        1261      0.58%     99.94% |           2      0.00%     99.94% |          16      0.01%     99.95% |         113      0.05%    100.00% |           5      0.00%    100.00% |           0      0.00%    100.00% |           0      0.00%    100.00% |           0      0.00%    100.00% |           0      0.00%    100.00% (Unspecified)
system.cache_hierarchy.ruby_system.RequestType.RMW_Read.latency_hist_seqr::total       217836                       (Unspecified)
system.cache_hierarchy.ruby_system.RequestType.RMW_Read.hit_latency_hist_seqr::bucket_size            1                       (Unspecified)
system.cache_hierarchy.ruby_system.RequestType.RMW_Read.hit_latency_hist_seqr::max_bucket            9                       (Unspecified)
system.cache_hierarchy.ruby_system.RequestType.RMW_Read.hit_latency_hist_seqr::samples       169419                       (Unspecified)
system.cache_hierarchy.ruby_system.RequestType.RMW_Read.hit_latency_hist_seqr::mean            1                       (Unspecified)
system.cache_hierarchy.ruby_system.RequestType.RMW_Read.hit_latency_hist_seqr::gmean            1                       (Unspecified)
system.cache_hierarchy.ruby_system.RequestType.RMW_Read.hit_latency_hist_seqr |           0      0.00%      0.00% |      169419    100.00%    100.00% |           0      0.00%    100.00% |           0      0.00%    100.00% |           0      0.00%    100.00% |           0      0.00%    100.00% |           0      0.00%    100.00% |           0      0.00%    100.00% |           0      0.00%    100.00% |           0      0.00%    100.00% (Unspecified)
system.cache_hierarchy.ruby_system.RequestType.RMW_Read.hit_latency_hist_seqr::total       169419                       (Unspecified)
system.cache_hierarchy.ruby_system.RequestType.RMW_Read.miss_latency_hist_seqr::bucket_size          256                       (Unspecified)
system.cache_hierarchy.ruby_system.RequestType.RMW_Read.miss_latency_hist_seqr::max_bucket         2559                       (Unspecified)
system.cache_hierarchy.ruby_system.RequestType.RMW_Read.miss_latency_hist_seqr::samples        48417                       (Unspecified)
system.cache_hierarchy.ruby_system.RequestType.RMW_Read.miss_latency_hist_seqr::mean    90.603569                       (Unspecified)
system.cache_hierarchy.ruby_system.RequestType.RMW_Read.miss_latency_hist_seqr::gmean    56.111893                       (Unspecified)
system.cache_hierarchy.ruby_system.RequestType.RMW_Read.miss_latency_hist_seqr::stdev    99.477755                       (Unspecified)
system.cache_hierarchy.ruby_system.RequestType.RMW_Read.miss_latency_hist_seqr |       47020     97.11%     97.11% |        1261      2.60%     99.72% |           2      0.00%     99.72% |          16      0.03%     99.76% |         113      0.23%     99.99% |           5      0.01%    100.00% |           0      0.00%    100.00% |           0      0.00%    100.00% |           0      0.00%    100.00% |           0      0.00%    100.00% (Unspecified)
system.cache_hierarchy.ruby_system.RequestType.RMW_Read.miss_latency_hist_seqr::total        48417                       (Unspecified)
system.cache_hierarchy.ruby_system.RequestType.Locked_RMW_Read.latency_hist_seqr::bucket_size          256                       (Unspecified)
system.cache_hierarchy.ruby_system.RequestType.Locked_RMW_Read.latency_hist_seqr::max_bucket         2559                       (Unspecified)
system.cache_hierarchy.ruby_system.RequestType.Locked_RMW_Read.latency_hist_seqr::samples       135596                       (Unspecified)
system.cache_hierarchy.ruby_system.RequestType.Locked_RMW_Read.latency_hist_seqr::mean    18.119214                       (Unspecified)
system.cache_hierarchy.ruby_system.RequestType.Locked_RMW_Read.latency_hist_seqr::gmean     4.060987                       (Unspecified)
system.cache_hierarchy.ruby_system.RequestType.Locked_RMW_Read.latency_hist_seqr::stdev    48.827535                       (Unspecified)
system.cache_hierarchy.ruby_system.RequestType.Locked_RMW_Read.latency_hist_seqr |      135276     99.76%     99.76% |         243      0.18%     99.94% |           1      0.00%     99.94% |          13      0.01%     99.95% |          61      0.04%    100.00% |           2      0.00%    100.00% |           0      0.00%    100.00% |           0      0.00%    100.00% |           0      0.00%    100.00% |           0      0.00%    100.00% (Unspecified)
system.cache_hierarchy.ruby_system.RequestType.Locked_RMW_Read.latency_hist_seqr::total       135596                       (Unspecified)
system.cache_hierarchy.ruby_system.RequestType.Locked_RMW_Read.hit_latency_hist_seqr::bucket_size            1                       (Unspecified)
system.cache_hierarchy.ruby_system.RequestType.Locked_RMW_Read.hit_latency_hist_seqr::max_bucket            9                       (Unspecified)
system.cache_hierarchy.ruby_system.RequestType.Locked_RMW_Read.hit_latency_hist_seqr::samples        76783                       (Unspecified)
system.cache_hierarchy.ruby_system.RequestType.Locked_RMW_Read.hit_latency_hist_seqr::mean            1                       (Unspecified)
system.cache_hierarchy.ruby_system.RequestType.Locked_RMW_Read.hit_latency_hist_seqr::gmean            1                       (Unspecified)
system.cache_hierarchy.ruby_system.RequestType.Locked_RMW_Read.hit_latency_hist_seqr |           0      0.00%      0.00% |       76783    100.00%    100.00% |           0      0.00%    100.00% |           0      0.00%    100.00% |           0      0.00%    100.00% |           0      0.00%    100.00% |           0      0.00%    100.00% |           0      0.00%    100.00% |           0      0.00%    100.00% |           0      0.00%    100.00% (Unspecified)
system.cache_hierarchy.ruby_system.RequestType.Locked_RMW_Read.hit_latency_hist_seqr::total        76783                       (Unspecified)
system.cache_hierarchy.ruby_system.RequestType.Locked_RMW_Read.miss_latency_hist_seqr::bucket_size          256                       (Unspecified)
system.cache_hierarchy.ruby_system.RequestType.Locked_RMW_Read.miss_latency_hist_seqr::max_bucket         2559                       (Unspecified)
system.cache_hierarchy.ruby_system.RequestType.Locked_RMW_Read.miss_latency_hist_seqr::samples        58813                       (Unspecified)
system.cache_hierarchy.ruby_system.RequestType.Locked_RMW_Read.miss_latency_hist_seqr::mean    40.469114                       (Unspecified)
system.cache_hierarchy.ruby_system.RequestType.Locked_RMW_Read.miss_latency_hist_seqr::gmean    25.306219                       (Unspecified)
system.cache_hierarchy.ruby_system.RequestType.Locked_RMW_Read.miss_latency_hist_seqr::stdev    67.931003                       (Unspecified)
system.cache_hierarchy.ruby_system.RequestType.Locked_RMW_Read.miss_latency_hist_seqr |       58493     99.46%     99.46% |         243      0.41%     99.87% |           1      0.00%     99.87% |          13      0.02%     99.89% |          61      0.10%    100.00% |           2      0.00%    100.00% |           0      0.00%    100.00% |           0      0.00%    100.00% |           0      0.00%    100.00% |           0      0.00%    100.00% (Unspecified)
system.cache_hierarchy.ruby_system.RequestType.Locked_RMW_Read.miss_latency_hist_seqr::total        58813                       (Unspecified)
system.cache_hierarchy.ruby_system.RequestType.Locked_RMW_Write.latency_hist_seqr::bucket_size            1                       (Unspecified)
system.cache_hierarchy.ruby_system.RequestType.Locked_RMW_Write.latency_hist_seqr::max_bucket            9                       (Unspecified)
system.cache_hierarchy.ruby_system.RequestType.Locked_RMW_Write.latency_hist_seqr::samples       135596                       (Unspecified)
system.cache_hierarchy.ruby_system.RequestType.Locked_RMW_Write.latency_hist_seqr::mean            1                       (Unspecified)
system.cache_hierarchy.ruby_system.RequestType.Locked_RMW_Write.latency_hist_seqr::gmean            1                       (Unspecified)
system.cache_hierarchy.ruby_system.RequestType.Locked_RMW_Write.latency_hist_seqr |           0      0.00%      0.00% |      135596    100.00%    100.00% |           0      0.00%    100.00% |           0      0.00%    100.00% |           0      0.00%    100.00% |           0      0.00%    100.00% |           0      0.00%    100.00% |           0      0.00%    100.00% |           0      0.00%    100.00% |           0      0.00%    100.00% (Unspecified)
system.cache_hierarchy.ruby_system.RequestType.Locked_RMW_Write.latency_hist_seqr::total       135596                       (Unspecified)
system.cache_hierarchy.ruby_system.RequestType.Locked_RMW_Write.hit_latency_hist_seqr::bucket_size            1                       (Unspecified)
system.cache_hierarchy.ruby_system.RequestType.Locked_RMW_Write.hit_latency_hist_seqr::max_bucket            9                       (Unspecified)
system.cache_hierarchy.ruby_system.RequestType.Locked_RMW_Write.hit_latency_hist_seqr::samples       135596                       (Unspecified)
system.cache_hierarchy.ruby_system.RequestType.Locked_RMW_Write.hit_latency_hist_seqr::mean            1                       (Unspecified)
system.cache_hierarchy.ruby_system.RequestType.Locked_RMW_Write.hit_latency_hist_seqr::gmean            1                       (Unspecified)
system.cache_hierarchy.ruby_system.RequestType.Locked_RMW_Write.hit_latency_hist_seqr |           0      0.00%      0.00% |      135596    100.00%    100.00% |           0      0.00%    100.00% |           0      0.00%    100.00% |           0      0.00%    100.00% |           0      0.00%    100.00% |           0      0.00%    100.00% |           0      0.00%    100.00% |           0      0.00%    100.00% |           0      0.00%    100.00% (Unspecified)
system.cache_hierarchy.ruby_system.RequestType.Locked_RMW_Write.hit_latency_hist_seqr::total       135596                       (Unspecified)
system.cache_hierarchy.ruby_system.directory_controllers0.power_state.pwrStateResidencyTicks::UNDEFINED 12802455725672                       # Cumulative time (in ticks) in various power states (Tick)
system.cache_hierarchy.ruby_system.directory_controllers0.requestToDir.m_msg_count      5612838                       # Number of messages passed the buffer (Count)
system.cache_hierarchy.ruby_system.directory_controllers0.requestToDir.m_buf_msgs     0.000146                       # Average number of messages in buffer ((Count/Tick))
system.cache_hierarchy.ruby_system.directory_controllers0.requestToMemory.m_msg_count      5757777                       # Number of messages passed the buffer (Count)
system.cache_hierarchy.ruby_system.directory_controllers0.requestToMemory.m_buf_msgs     0.000150                       # Average number of messages in buffer ((Count/Tick))
system.cache_hierarchy.ruby_system.directory_controllers0.requestToMemory.m_stall_time      5428718                       # Total number of ticks messages were stalled in this buffer (Tick)
system.cache_hierarchy.ruby_system.directory_controllers0.requestToMemory.m_avg_stall_time     0.942850                       # Average stall ticks per message ((Tick/Count))
system.cache_hierarchy.ruby_system.directory_controllers0.responseFromDir.m_msg_count     11221195                       # Number of messages passed the buffer (Count)
system.cache_hierarchy.ruby_system.directory_controllers0.responseFromDir.m_buf_msgs     0.000292                       # Average number of messages in buffer ((Count/Tick))
system.cache_hierarchy.ruby_system.directory_controllers0.responseFromMemory.m_msg_count      5757777                       # Number of messages passed the buffer (Count)
system.cache_hierarchy.ruby_system.directory_controllers0.responseFromMemory.m_buf_msgs     0.000244                       # Average number of messages in buffer ((Count/Tick))
system.cache_hierarchy.ruby_system.directory_controllers0.responseToDir.m_msg_count      5608355                       # Number of messages passed the buffer (Count)
system.cache_hierarchy.ruby_system.directory_controllers0.responseToDir.m_buf_msgs     0.000146                       # Average number of messages in buffer ((Count/Tick))
[...]
system.processor.cores2.core.mmu.itb.wrAccesses    847007138                       # TLB accesses on write requests (Count)
system.processor.cores2.core.mmu.itb.rdMisses            0                       # TLB misses on read requests (Count)
system.processor.cores2.core.mmu.itb.wrMisses        42385                       # TLB misses on write requests (Count)
system.processor.cores2.core.mmu.itb.walker.power_state.pwrStateResidencyTicks::UNDEFINED 12802455725672                       # Cumulative time (in ticks) in various power states (Tick)
system.processor.cores2.core.power_state.numTransitions           88                       # Number of power state transitions (Count)
system.processor.cores2.core.power_state.ticksClkGated::samples           44                       # Distribution of time spent in the clock gated state (Tick)
system.processor.cores2.core.power_state.ticksClkGated::mean 47265059.750000                       # Distribution of time spent in the clock gated state (Tick)
system.processor.cores2.core.power_state.ticksClkGated::stdev 46532592.637307                       # Distribution of time spent in the clock gated state (Tick)
system.processor.cores2.core.power_state.ticksClkGated::1000-5e+10           44    100.00%    100.00% # Distribution of time spent in the clock gated state (Tick)
system.processor.cores2.core.power_state.ticksClkGated::min_value      1054612                       # Distribution of time spent in the clock gated state (Tick)
system.processor.cores2.core.power_state.ticksClkGated::max_value    214870581                       # Distribution of time spent in the clock gated state (Tick)
system.processor.cores2.core.power_state.ticksClkGated::total           44                       # Distribution of time spent in the clock gated state (Tick)
system.processor.cores2.core.power_state.pwrStateResidencyTicks::ON 1137481029646                       # Cumulative time (in ticks) in various power states (Tick)
system.processor.cores2.core.power_state.pwrStateResidencyTicks::CLK_GATED   2079662629                       # Cumulative time (in ticks) in various power states (Tick)
system.processor.cores2.core.power_state.pwrStateResidencyTicks::OFF 11662895033397                       # Cumulative time (in ticks) in various power states (Tick)
system.processor.cores2.core.thread_0.numInsts            0                       # Number of Instructions committed (Count)
system.processor.cores2.core.thread_0.numOps            0                       # Number of Ops committed (Count)
system.processor.cores2.core.thread_0.numMemRefs            0                       # Number of Memory References (Count)
system.processor.cores3.core.numCycles     3436600745                       # Number of cpu cycles simulated (Cycle)
system.processor.cores3.core.numWorkItemsStarted            0                       # Number of work items this cpu started (Count)
system.processor.cores3.core.numWorkItemsCompleted            0                       # Number of work items this cpu completed (Count)
system.processor.cores3.core.exec_context.thread_0.numInsts    584476934                       # Number of instructions committed (Count)
system.processor.cores3.core.exec_context.thread_0.numOps   1065325139                       # Number of ops (including micro ops) committed (Count)
system.processor.cores3.core.exec_context.thread_0.numIntAluAccesses    610049578                       # Number of integer alu accesses (Count)
system.processor.cores3.core.exec_context.thread_0.numFpAluAccesses    638497813                       # Number of float alu accesses (Count)
system.processor.cores3.core.exec_context.thread_0.numVecAluAccesses            0                       # Number of vector alu accesses (Count)
system.processor.cores3.core.exec_context.thread_0.numCallsReturns       700841                       # Number of times a function call or return occured (Count)
system.processor.cores3.core.exec_context.thread_0.numCondCtrlInsts     53468673                       # Number of instructions that are conditional controls (Count)
system.processor.cores3.core.exec_context.thread_0.numIntInsts    610049578                       # Number of integer instructions (Count)
system.processor.cores3.core.exec_context.thread_0.numFpInsts    638497813                       # Number of float instructions (Count)
system.processor.cores3.core.exec_context.thread_0.numVecInsts            0                       # Number of vector instructions (Count)
system.processor.cores3.core.exec_context.thread_0.numIntRegReads    730809580                       # Number of times the integer registers were read (Count)
system.processor.cores3.core.exec_context.thread_0.numIntRegWrites    297636017                       # Number of times the integer registers were written (Count)
system.processor.cores3.core.exec_context.thread_0.numFpRegReads    815988478                       # Number of times the floating registers were read (Count)
system.processor.cores3.core.exec_context.thread_0.numFpRegWrites    630017489                       # Number of times the floating registers were written (Count)
system.processor.cores3.core.exec_context.thread_0.numVecRegReads            0                       # Number of times the vector registers were read (Count)
system.processor.cores3.core.exec_context.thread_0.numVecRegWrites            0                       # Number of times the vector registers were written (Count)
system.processor.cores3.core.exec_context.thread_0.numVecPredRegReads            0                       # Number of times the predicate registers were read (Count)
system.processor.cores3.core.exec_context.thread_0.numVecPredRegWrites            0                       # Number of times the predicate registers were written (Count)
system.processor.cores3.core.exec_context.thread_0.numCCRegReads    288051648                       # Number of times the CC registers were read (Count)
system.processor.cores3.core.exec_context.thread_0.numCCRegWrites    201829135                       # Number of times the CC registers were written (Count)
system.processor.cores3.core.exec_context.thread_0.numMiscRegReads    346663120                       # Number of times the Misc registers were read (Count)
system.processor.cores3.core.exec_context.thread_0.numMiscRegWrites       154946                       # Number of times the Misc registers were written (Count)
system.processor.cores3.core.exec_context.thread_0.numMemRefs    232438577                       # Number of memory refs (Count)
system.processor.cores3.core.exec_context.thread_0.numLoadInsts    221486743                       # Number of load instructions (Count)
system.processor.cores3.core.exec_context.thread_0.numStoreInsts     10951834                       # Number of store instructions (Count)
system.processor.cores3.core.exec_context.thread_0.numIdleCycles 25198414.964228                       # Number of idle cycles (Cycle)
system.processor.cores3.core.exec_context.thread_0.numBusyCycles 3411402330.035772                       # Number of busy cycles (Cycle)
system.processor.cores3.core.exec_context.thread_0.notIdleFraction     0.992668                       # Percentage of non-idle cycles (Ratio)
system.processor.cores3.core.exec_context.thread_0.idleFraction     0.007332                       # Percentage of idle cycles (Ratio)
system.processor.cores3.core.exec_context.thread_0.numBranches     57198670                       # Number of branches fetched (Count)
system.processor.cores3.core.exec_context.thread_0.statExecutedInstType::No_OpClass      5258380      0.49%      0.49% # Class of executed instruction. (Count)
system.processor.cores3.core.exec_context.thread_0.statExecutedInstType::IntAlu    378122045     35.49%     35.99% # Class of executed instruction. (Count)
system.processor.cores3.core.exec_context.thread_0.statExecutedInstType::IntMult        70552      0.01%     35.99% # Class of executed instruction. (Count)
system.processor.cores3.core.exec_context.thread_0.statExecutedInstType::IntDiv       292575      0.03%     36.02% # Class of executed instruction. (Count)
system.processor.cores3.core.exec_context.thread_0.statExecutedInstType::FloatAdd    175537480     16.48%     52.50% # Class of executed instruction. (Count)
system.processor.cores3.core.exec_context.thread_0.statExecutedInstType::FloatCmp            0      0.00%     52.50% # Class of executed instruction. (Count)
system.processor.cores3.core.exec_context.thread_0.statExecutedInstType::FloatCvt          256      0.00%     52.50% # Class of executed instruction. (Count)
system.processor.cores3.core.exec_context.thread_0.statExecutedInstType::FloatMult            0      0.00%     52.50% # Class of executed instruction. (Count)
system.processor.cores3.core.exec_context.thread_0.statExecutedInstType::FloatMultAcc            0      0.00%     52.50% # Class of executed instruction. (Count)
system.processor.cores3.core.exec_context.thread_0.statExecutedInstType::FloatDiv            0      0.00%     52.50% # Class of executed instruction. (Count)
system.processor.cores3.core.exec_context.thread_0.statExecutedInstType::FloatMisc            0      0.00%     52.50% # Class of executed instruction. (Count)
system.processor.cores3.core.exec_context.thread_0.statExecutedInstType::FloatSqrt            0      0.00%     52.50% # Class of executed instruction. (Count)
system.processor.cores3.core.exec_context.thread_0.statExecutedInstType::SimdAdd          510      0.00%     52.50% # Class of executed instruction. (Count)
system.processor.cores3.core.exec_context.thread_0.statExecutedInstType::SimdAddAcc            0      0.00%     52.50% # Class of executed instruction. (Count)
system.processor.cores3.core.exec_context.thread_0.statExecutedInstType::SimdAlu      5236646      0.49%     52.99% # Class of executed instruction. (Count)
system.processor.cores3.core.exec_context.thread_0.statExecutedInstType::SimdCmp            0      0.00%     52.99% # Class of executed instruction. (Count)
system.processor.cores3.core.exec_context.thread_0.statExecutedInstType::SimdCvt          336      0.00%     52.99% # Class of executed instruction. (Count)
system.processor.cores3.core.exec_context.thread_0.statExecutedInstType::SimdMisc        62455      0.01%     53.00% # Class of executed instruction. (Count)
system.processor.cores3.core.exec_context.thread_0.statExecutedInstType::SimdMult            0      0.00%     53.00% # Class of executed instruction. (Count)
system.processor.cores3.core.exec_context.thread_0.statExecutedInstType::SimdMultAcc            0      0.00%     53.00% # Class of executed instruction. (Count)
system.processor.cores3.core.exec_context.thread_0.statExecutedInstType::SimdShift          236      0.00%     53.00% # Class of executed instruction. (Count)
system.processor.cores3.core.exec_context.thread_0.statExecutedInstType::SimdShiftAcc            0      0.00%     53.00% # Class of executed instruction. (Count)
system.processor.cores3.core.exec_context.thread_0.statExecutedInstType::SimdDiv            0      0.00%     53.00% # Class of executed instruction. (Count)
system.processor.cores3.core.exec_context.thread_0.statExecutedInstType::SimdSqrt            0      0.00%     53.00% # Class of executed instruction. (Count)
system.processor.cores3.core.exec_context.thread_0.statExecutedInstType::SimdFloatAdd    175250199     16.45%     69.45% # Class of executed instruction. (Count)
system.processor.cores3.core.exec_context.thread_0.statExecutedInstType::SimdFloatAlu            0      0.00%     69.45% # Class of executed instruction. (Count)
system.processor.cores3.core.exec_context.thread_0.statExecutedInstType::SimdFloatCmp            0      0.00%     69.45% # Class of executed instruction. (Count)
system.processor.cores3.core.exec_context.thread_0.statExecutedInstType::SimdFloatCvt      5312574      0.50%     69.95% # Class of executed instruction. (Count)
system.processor.cores3.core.exec_context.thread_0.statExecutedInstType::SimdFloatDiv        20488      0.00%     69.95% # Class of executed instruction. (Count)
system.processor.cores3.core.exec_context.thread_0.statExecutedInstType::SimdFloatMisc            0      0.00%     69.95% # Class of executed instruction. (Count)
system.processor.cores3.core.exec_context.thread_0.statExecutedInstType::SimdFloatMult     87721838      8.23%     78.18% # Class of executed instruction. (Count)
system.processor.cores3.core.exec_context.thread_0.statExecutedInstType::SimdFloatMultAcc            0      0.00%     78.18% # Class of executed instruction. (Count)
system.processor.cores3.core.exec_context.thread_0.statExecutedInstType::SimdFloatSqrt            0      0.00%     78.18% # Class of executed instruction. (Count)
system.processor.cores3.core.exec_context.thread_0.statExecutedInstType::SimdReduceAdd            0      0.00%     78.18% # Class of executed instruction. (Count)
system.processor.cores3.core.exec_context.thread_0.statExecutedInstType::SimdReduceAlu            0      0.00%     78.18% # Class of executed instruction. (Count)
system.processor.cores3.core.exec_context.thread_0.statExecutedInstType::SimdReduceCmp            0      0.00%     78.18% # Class of executed instruction. (Count)
system.processor.cores3.core.exec_context.thread_0.statExecutedInstType::SimdFloatReduceAdd            0      0.00%     78.18% # Class of executed instruction. (Count)
system.processor.cores3.core.exec_context.thread_0.statExecutedInstType::SimdFloatReduceCmp            0      0.00%     78.18% # Class of executed instruction. (Count)
system.processor.cores3.core.exec_context.thread_0.statExecutedInstType::SimdAes            0      0.00%     78.18% # Class of executed instruction. (Count)
system.processor.cores3.core.exec_context.thread_0.statExecutedInstType::SimdAesMix            0      0.00%     78.18% # Class of executed instruction. (Count)
system.processor.cores3.core.exec_context.thread_0.statExecutedInstType::SimdSha1Hash            0      0.00%     78.18% # Class of executed instruction. (Count)
system.processor.cores3.core.exec_context.thread_0.statExecutedInstType::SimdSha1Hash2            0      0.00%     78.18% # Class of executed instruction. (Count)
system.processor.cores3.core.exec_context.thread_0.statExecutedInstType::SimdSha256Hash            0      0.00%     78.18% # Class of executed instruction. (Count)
system.processor.cores3.core.exec_context.thread_0.statExecutedInstType::SimdSha256Hash2            0      0.00%     78.18% # Class of executed instruction. (Count)
system.processor.cores3.core.exec_context.thread_0.statExecutedInstType::SimdShaSigma2            0      0.00%     78.18% # Class of executed instruction. (Count)
system.processor.cores3.core.exec_context.thread_0.statExecutedInstType::SimdShaSigma3            0      0.00%     78.18% # Class of executed instruction. (Count)
system.processor.cores3.core.exec_context.thread_0.statExecutedInstType::SimdPredAlu            0      0.00%     78.18% # Class of executed instruction. (Count)
system.processor.cores3.core.exec_context.thread_0.statExecutedInstType::MemRead     37925924      3.56%     81.74% # Class of executed instruction. (Count)
system.processor.cores3.core.exec_context.thread_0.statExecutedInstType::MemWrite      5180428      0.49%     82.23% # Class of executed instruction. (Count)
system.processor.cores3.core.exec_context.thread_0.statExecutedInstType::FloatMemRead    183560819     17.23%     99.46% # Class of executed instruction. (Count)
system.processor.cores3.core.exec_context.thread_0.statExecutedInstType::FloatMemWrite      5771406      0.54%    100.00% # Class of executed instruction. (Count)
system.processor.cores3.core.exec_context.thread_0.statExecutedInstType::IprAccess            0      0.00%    100.00% # Class of executed instruction. (Count)
system.processor.cores3.core.exec_context.thread_0.statExecutedInstType::InstPrefetch            0      0.00%    100.00% # Class of executed instruction. (Count)
system.processor.cores3.core.exec_context.thread_0.statExecutedInstType::total   1065325147                       # Class of executed instruction. (Count)
system.processor.cores3.core.mmu.dtb.rdAccesses    228498008                       # TLB accesses on read requests (Count)
system.processor.cores3.core.mmu.dtb.wrAccesses     10967810                       # TLB accesses on write requests (Count)
system.processor.cores3.core.mmu.dtb.rdMisses      1697987                       # TLB misses on read requests (Count)
system.processor.cores3.core.mmu.dtb.wrMisses        16594                       # TLB misses on write requests (Count)
system.processor.cores3.core.mmu.dtb.walker.power_state.pwrStateResidencyTicks::UNDEFINED 12802455725672                       # Cumulative time (in ticks) in various power states (Tick)
system.processor.cores3.core.mmu.itb.rdAccesses            0                       # TLB accesses on read requests (Count)
system.processor.cores3.core.mmu.itb.wrAccesses    841890668                       # TLB accesses on write requests (Count)
system.processor.cores3.core.mmu.itb.rdMisses            0                       # TLB misses on read requests (Count)
system.processor.cores3.core.mmu.itb.wrMisses        48812                       # TLB misses on write requests (Count)
system.processor.cores3.core.mmu.itb.walker.power_state.pwrStateResidencyTicks::UNDEFINED 12802455725672                       # Cumulative time (in ticks) in various power states (Tick)
system.processor.cores3.core.power_state.numTransitions           34                       # Number of power state transitions (Count)
system.processor.cores3.core.power_state.ticksClkGated::samples           17                       # Distribution of time spent in the clock gated state (Tick)
system.processor.cores3.core.power_state.ticksClkGated::mean 493883152.529412                       # Distribution of time spent in the clock gated state (Tick)
system.processor.cores3.core.power_state.ticksClkGated::stdev 435888213.744856                       # Distribution of time spent in the clock gated state (Tick)
system.processor.cores3.core.power_state.ticksClkGated::1000-5e+10           17    100.00%    100.00% # Distribution of time spent in the clock gated state (Tick)
system.processor.cores3.core.power_state.ticksClkGated::min_value      1081918                       # Distribution of time spent in the clock gated state (Tick)
system.processor.cores3.core.power_state.ticksClkGated::max_value    998029638                       # Distribution of time spent in the clock gated state (Tick)
system.processor.cores3.core.power_state.ticksClkGated::total           17                       # Distribution of time spent in the clock gated state (Tick)
system.processor.cores3.core.power_state.pwrStateResidencyTicks::ON 1136696548381                       # Cumulative time (in ticks) in various power states (Tick)
system.processor.cores3.core.power_state.pwrStateResidencyTicks::CLK_GATED   8396013593                       # Cumulative time (in ticks) in various power states (Tick)
system.processor.cores3.core.power_state.pwrStateResidencyTicks::OFF 11657363163698                       # Cumulative time (in ticks) in various power states (Tick)
system.processor.cores3.core.thread_0.numInsts            0                       # Number of Instructions committed (Count)
system.processor.cores3.core.thread_0.numOps            0                       # Number of Ops committed (Count)
system.processor.cores3.core.thread_0.numMemRefs            0                       # Number of Memory References (Count)
system.workload.inst.arm                            0                       # number of arm instructions executed (Count)
system.workload.inst.quiesce                        0                       # number of quiesce instructions executed (Count)

---------- End Simulation Statistics   ----------
