
---------- Begin Simulation Statistics ----------
simSeconds                                   0.000288                       # Number of seconds simulated (Second)
simTicks                                    287608750                       # Number of ticks simulated (Tick)
finalTick                                299043753750                       # Number of ticks from beginning of simulation (restored from checkpoints and never reset) (Tick)
simFreq                                  1000000000000                       # The number of ticks per simulated second ((Tick/Second))
hostSeconds                                      1.55                       # Real time elapsed on the host (Second)
hostTickRate                                185897972                       # The number of ticks simulated per host second (ticks/s) ((Tick/Second))
hostMemory                                    9283292                       # Number of bytes of host memory used (Byte)
simInsts                                    447125243                       # Number of instructions simulated (Count)
simOps                                      484342039                       # Number of ops (including micro ops) simulated (Count)
hostInstRate                                288986565                       # Simulator instruction rate (inst/s) ((Count/Second))
hostOpRate                                  313038747                       # Simulator op (including micro ops) rate (op/s) ((Count/Second))
testsys.clk_domain.clock                         1000                       # Clock period in ticks (Tick)
testsys.cpu_cluster.clk_domain.clock              250                       # Clock period in ticks (Tick)
testsys.cpu_cluster.cpus0.numCycles           1150438                       # Number of cpu cycles simulated (Cycle)
testsys.cpu_cluster.cpus0.numWorkItemsStarted            0                       # Number of work items this cpu started (Count)
testsys.cpu_cluster.cpus0.numWorkItemsCompleted            0                       # Number of work items this cpu completed (Count)
testsys.cpu_cluster.cpus0.exec_context.thread_0.numInsts       809792                       # Number of instructions committed (Count)
testsys.cpu_cluster.cpus0.exec_context.thread_0.numOps       936659                       # Number of ops (including micro ops) committed (Count)
testsys.cpu_cluster.cpus0.exec_context.thread_0.numIntAluAccesses       856638                       # Number of integer alu accesses (Count)
testsys.cpu_cluster.cpus0.exec_context.thread_0.numFpAluAccesses            0                       # Number of float alu accesses (Count)
testsys.cpu_cluster.cpus0.exec_context.thread_0.numVecAluAccesses          346                       # Number of vector alu accesses (Count)
testsys.cpu_cluster.cpus0.exec_context.thread_0.numCallsReturns        46216                       # Number of times a function call or return occured (Count)
testsys.cpu_cluster.cpus0.exec_context.thread_0.numCondCtrlInsts       100049                       # Number of instructions that are conditional controls (Count)
testsys.cpu_cluster.cpus0.exec_context.thread_0.numIntInsts       856638                       # Number of integer instructions (Count)
testsys.cpu_cluster.cpus0.exec_context.thread_0.numFpInsts            0                       # Number of float instructions (Count)
testsys.cpu_cluster.cpus0.exec_context.thread_0.numVecInsts          346                       # Number of vector instructions (Count)
testsys.cpu_cluster.cpus0.exec_context.thread_0.numIntRegReads      1187199                       # Number of times the integer registers were read (Count)
testsys.cpu_cluster.cpus0.exec_context.thread_0.numIntRegWrites       714646                       # Number of times the integer registers were written (Count)
testsys.cpu_cluster.cpus0.exec_context.thread_0.numFpRegReads            0                       # Number of times the floating registers were read (Count)
testsys.cpu_cluster.cpus0.exec_context.thread_0.numFpRegWrites            0                       # Number of times the floating registers were written (Count)
testsys.cpu_cluster.cpus0.exec_context.thread_0.numVecRegReads          288                       # Number of times the vector registers were read (Count)
testsys.cpu_cluster.cpus0.exec_context.thread_0.numVecRegWrites          116                       # Number of times the vector registers were written (Count)
testsys.cpu_cluster.cpus0.exec_context.thread_0.numVecPredRegReads            0                       # Number of times the predicate registers were read (Count)
testsys.cpu_cluster.cpus0.exec_context.thread_0.numVecPredRegWrites            0                       # Number of times the predicate registers were written (Count)
testsys.cpu_cluster.cpus0.exec_context.thread_0.numCCRegReads       220629                       # Number of times the CC registers were read (Count)
testsys.cpu_cluster.cpus0.exec_context.thread_0.numCCRegWrites       217206                       # Number of times the CC registers were written (Count)
testsys.cpu_cluster.cpus0.exec_context.thread_0.numMemRefs       295229                       # Number of memory refs (Count)
testsys.cpu_cluster.cpus0.exec_context.thread_0.numLoadInsts       174108                       # Number of load instructions (Count)
testsys.cpu_cluster.cpus0.exec_context.thread_0.numStoreInsts       121121                       # Number of store instructions (Count)
testsys.cpu_cluster.cpus0.exec_context.thread_0.numIdleCycles 213699.532522                       # Number of idle cycles (Cycle)
testsys.cpu_cluster.cpus0.exec_context.thread_0.numBusyCycles 936738.467478                       # Number of busy cycles (Cycle)
testsys.cpu_cluster.cpus0.exec_context.thread_0.notIdleFraction     0.814245                       # Percentage of non-idle cycles (Ratio)
testsys.cpu_cluster.cpus0.exec_context.thread_0.idleFraction     0.185755                       # Percentage of idle cycles (Ratio)
testsys.cpu_cluster.cpus0.exec_context.thread_0.numBranches       153083                       # Number of branches fetched (Count)
testsys.cpu_cluster.cpus0.exec_context.thread_0.statExecutedInstType::No_OpClass          126      0.01%      0.01% # Class of executed instruction. (Count)
testsys.cpu_cluster.cpus0.exec_context.thread_0.statExecutedInstType::IntAlu       640372     68.36%     68.38% # Class of executed instruction. (Count)
testsys.cpu_cluster.cpus0.exec_context.thread_0.statExecutedInstType::IntMult          915      0.10%     68.47% # Class of executed instruction. (Count)
testsys.cpu_cluster.cpus0.exec_context.thread_0.statExecutedInstType::IntDiv           22      0.00%     68.48% # Class of executed instruction. (Count)
testsys.cpu_cluster.cpus0.exec_context.thread_0.statExecutedInstType::FloatAdd            0      0.00%     68.48% # Class of executed instruction. (Count)
testsys.cpu_cluster.cpus0.exec_context.thread_0.statExecutedInstType::FloatCmp            0      0.00%     68.48% # Class of executed instruction. (Count)
testsys.cpu_cluster.cpus0.exec_context.thread_0.statExecutedInstType::FloatCvt            0      0.00%     68.48% # Class of executed instruction. (Count)
testsys.cpu_cluster.cpus0.exec_context.thread_0.statExecutedInstType::FloatMult            0      0.00%     68.48% # Class of executed instruction. (Count)
testsys.cpu_cluster.cpus0.exec_context.thread_0.statExecutedInstType::FloatMultAcc            0      0.00%     68.48% # Class of executed instruction. (Count)
testsys.cpu_cluster.cpus0.exec_context.thread_0.statExecutedInstType::FloatDiv            0      0.00%     68.48% # Class of executed instruction. (Count)
testsys.cpu_cluster.cpus0.exec_context.thread_0.statExecutedInstType::FloatMisc           12      0.00%     68.48% # Class of executed instruction. (Count)
testsys.cpu_cluster.cpus0.exec_context.thread_0.statExecutedInstType::FloatSqrt            0      0.00%     68.48% # Class of executed instruction. (Count)
testsys.cpu_cluster.cpus0.exec_context.thread_0.statExecutedInstType::SimdAdd           11      0.00%     68.48% # Class of executed instruction. (Count)
testsys.cpu_cluster.cpus0.exec_context.thread_0.statExecutedInstType::SimdAddAcc            0      0.00%     68.48% # Class of executed instruction. (Count)
testsys.cpu_cluster.cpus0.exec_context.thread_0.statExecutedInstType::SimdAlu            8      0.00%     68.48% # Class of executed instruction. (Count)
testsys.cpu_cluster.cpus0.exec_context.thread_0.statExecutedInstType::SimdCmp            8      0.00%     68.48% # Class of executed instruction. (Count)
testsys.cpu_cluster.cpus0.exec_context.thread_0.statExecutedInstType::SimdCvt            0      0.00%     68.48% # Class of executed instruction. (Count)
testsys.cpu_cluster.cpus0.exec_context.thread_0.statExecutedInstType::SimdMisc           11      0.00%     68.48% # Class of executed instruction. (Count)
testsys.cpu_cluster.cpus0.exec_context.thread_0.statExecutedInstType::SimdMult            0      0.00%     68.48% # Class of executed instruction. (Count)
testsys.cpu_cluster.cpus0.exec_context.thread_0.statExecutedInstType::SimdMultAcc            0      0.00%     68.48% # Class of executed instruction. (Count)
testsys.cpu_cluster.cpus0.exec_context.thread_0.statExecutedInstType::SimdShift            0      0.00%     68.48% # Class of executed instruction. (Count)
testsys.cpu_cluster.cpus0.exec_context.thread_0.statExecutedInstType::SimdShiftAcc            0      0.00%     68.48% # Class of executed instruction. (Count)
testsys.cpu_cluster.cpus0.exec_context.thread_0.statExecutedInstType::SimdDiv            0      0.00%     68.48% # Class of executed instruction. (Count)
testsys.cpu_cluster.cpus0.exec_context.thread_0.statExecutedInstType::SimdSqrt            0      0.00%     68.48% # Class of executed instruction. (Count)
testsys.cpu_cluster.cpus0.exec_context.thread_0.statExecutedInstType::SimdFloatAdd            0      0.00%     68.48% # Class of executed instruction. (Count)
testsys.cpu_cluster.cpus0.exec_context.thread_0.statExecutedInstType::SimdFloatAlu            0      0.00%     68.48% # Class of executed instruction. (Count)
testsys.cpu_cluster.cpus0.exec_context.thread_0.statExecutedInstType::SimdFloatCmp            0      0.00%     68.48% # Class of executed instruction. (Count)
testsys.cpu_cluster.cpus0.exec_context.thread_0.statExecutedInstType::SimdFloatCvt            0      0.00%     68.48% # Class of executed instruction. (Count)
testsys.cpu_cluster.cpus0.exec_context.thread_0.statExecutedInstType::SimdFloatDiv            0      0.00%     68.48% # Class of executed instruction. (Count)
testsys.cpu_cluster.cpus0.exec_context.thread_0.statExecutedInstType::SimdFloatMisc            0      0.00%     68.48% # Class of executed instruction. (Count)
testsys.cpu_cluster.cpus0.exec_context.thread_0.statExecutedInstType::SimdFloatMult            0      0.00%     68.48% # Class of executed instruction. (Count)
testsys.cpu_cluster.cpus0.exec_context.thread_0.statExecutedInstType::SimdFloatMultAcc            0      0.00%     68.48% # Class of executed instruction. (Count)
testsys.cpu_cluster.cpus0.exec_context.thread_0.statExecutedInstType::SimdFloatSqrt            0      0.00%     68.48% # Class of executed instruction. (Count)
testsys.cpu_cluster.cpus0.exec_context.thread_0.statExecutedInstType::SimdReduceAdd            0      0.00%     68.48% # Class of executed instruction. (Count)
testsys.cpu_cluster.cpus0.exec_context.thread_0.statExecutedInstType::SimdReduceAlu            0      0.00%     68.48% # Class of executed instruction. (Count)
testsys.cpu_cluster.cpus0.exec_context.thread_0.statExecutedInstType::SimdReduceCmp            0      0.00%     68.48% # Class of executed instruction. (Count)
testsys.cpu_cluster.cpus0.exec_context.thread_0.statExecutedInstType::SimdFloatReduceAdd            0      0.00%     68.48% # Class of executed instruction. (Count)
testsys.cpu_cluster.cpus0.exec_context.thread_0.statExecutedInstType::SimdFloatReduceCmp            0      0.00%     68.48% # Class of executed instruction. (Count)
testsys.cpu_cluster.cpus0.exec_context.thread_0.statExecutedInstType::SimdAes            0      0.00%     68.48% # Class of executed instruction. (Count)
testsys.cpu_cluster.cpus0.exec_context.thread_0.statExecutedInstType::SimdAesMix            0      0.00%     68.48% # Class of executed instruction. (Count)
testsys.cpu_cluster.cpus0.exec_context.thread_0.statExecutedInstType::SimdSha1Hash            0      0.00%     68.48% # Class of executed instruction. (Count)
testsys.cpu_cluster.cpus0.exec_context.thread_0.statExecutedInstType::SimdSha1Hash2            0      0.00%     68.48% # Class of executed instruction. (Count)
testsys.cpu_cluster.cpus0.exec_context.thread_0.statExecutedInstType::SimdSha256Hash            0      0.00%     68.48% # Class of executed instruction. (Count)
testsys.cpu_cluster.cpus0.exec_context.thread_0.statExecutedInstType::SimdSha256Hash2            0      0.00%     68.48% # Class of executed instruction. (Count)
testsys.cpu_cluster.cpus0.exec_context.thread_0.statExecutedInstType::SimdShaSigma2            0      0.00%     68.48% # Class of executed instruction. (Count)
testsys.cpu_cluster.cpus0.exec_context.thread_0.statExecutedInstType::SimdShaSigma3            0      0.00%     68.48% # Class of executed instruction. (Count)
testsys.cpu_cluster.cpus0.exec_context.thread_0.statExecutedInstType::SimdPredAlu            0      0.00%     68.48% # Class of executed instruction. (Count)
testsys.cpu_cluster.cpus0.exec_context.thread_0.statExecutedInstType::MemRead       174108     18.59%     87.07% # Class of executed instruction. (Count)
testsys.cpu_cluster.cpus0.exec_context.thread_0.statExecutedInstType::MemWrite       121121     12.93%    100.00% # Class of executed instruction. (Count)
testsys.cpu_cluster.cpus0.exec_context.thread_0.statExecutedInstType::FloatMemRead            0      0.00%    100.00% # Class of executed instruction. (Count)
testsys.cpu_cluster.cpus0.exec_context.thread_0.statExecutedInstType::FloatMemWrite            0      0.00%    100.00% # Class of executed instruction. (Count)
testsys.cpu_cluster.cpus0.exec_context.thread_0.statExecutedInstType::IprAccess            0      0.00%    100.00% # Class of executed instruction. (Count)
testsys.cpu_cluster.cpus0.exec_context.thread_0.statExecutedInstType::InstPrefetch            0      0.00%    100.00% # Class of executed instruction. (Count)
testsys.cpu_cluster.cpus0.exec_context.thread_0.statExecutedInstType::total       936714                       # Class of executed instruction. (Count)
testsys.cpu_cluster.cpus0.mmu.dtb.instHits            0                       # ITB inst hits (Count)
testsys.cpu_cluster.cpus0.mmu.dtb.instMisses            0                       # ITB inst misses (Count)
testsys.cpu_cluster.cpus0.mmu.dtb.readHits       173721                       # DTB read hits (Count)
testsys.cpu_cluster.cpus0.mmu.dtb.readMisses          537                       # DTB read misses (Count)
testsys.cpu_cluster.cpus0.mmu.dtb.writeHits       121049                       # DTB write hits (Count)
testsys.cpu_cluster.cpus0.mmu.dtb.writeMisses          123                       # DTB write misses (Count)
testsys.cpu_cluster.cpus0.mmu.dtb.inserts          621                       # Number of times an entry is inserted into the TLB (Count)
testsys.cpu_cluster.cpus0.mmu.dtb.flushTlb            0                       # Number of times complete TLB was flushed (Count)
testsys.cpu_cluster.cpus0.mmu.dtb.flushTlbMva            0                       # Number of times TLB was flushed by MVA (Count)
testsys.cpu_cluster.cpus0.mmu.dtb.flushTlbMvaAsid           41                       # Number of times TLB was flushed by MVA & ASID (Count)
testsys.cpu_cluster.cpus0.mmu.dtb.flushTlbAsid            3                       # Number of times TLB was flushed by ASID (Count)
testsys.cpu_cluster.cpus0.mmu.dtb.flushedEntries          104                       # Number of entries that have been flushed from TLB (Count)
testsys.cpu_cluster.cpus0.mmu.dtb.alignFaults            0                       # Number of TLB faults due to alignment restrictions (Count)
testsys.cpu_cluster.cpus0.mmu.dtb.prefetchFaults            5                       # Number of TLB faults due to prefetch (Count)
testsys.cpu_cluster.cpus0.mmu.dtb.domainFaults            0                       # Number of TLB faults due to domain restrictions (Count)
testsys.cpu_cluster.cpus0.mmu.dtb.permsFaults            9                       # Number of TLB faults due to permissions restrictions (Count)
testsys.cpu_cluster.cpus0.mmu.dtb.readAccesses       174258                       # DTB read accesses (Count)
testsys.cpu_cluster.cpus0.mmu.dtb.writeAccesses       121172                       # DTB write accesses (Count)
testsys.cpu_cluster.cpus0.mmu.dtb.instAccesses            0                       # ITB inst accesses (Count)
testsys.cpu_cluster.cpus0.mmu.dtb.hits         294770                       # Total TLB (inst and data) hits (Count)
testsys.cpu_cluster.cpus0.mmu.dtb.misses          660                       # Total TLB (inst and data) misses (Count)
testsys.cpu_cluster.cpus0.mmu.dtb.accesses       295430                       # Total TLB (inst and data) accesses (Count)
testsys.cpu_cluster.cpus0.mmu.dtb_walker.walks          655                       # Table walker walks requested (Count)
testsys.cpu_cluster.cpus0.mmu.dtb_walker.walksLongDescriptor          655                       # Table walker walks initiated with long descriptors (Count)
testsys.cpu_cluster.cpus0.mmu.dtb_walker.walkWaitTime::samples          655                       # Table walker wait (enqueue to first request) latency (Tick)
testsys.cpu_cluster.cpus0.mmu.dtb_walker.walkWaitTime::0          655    100.00%    100.00% # Table walker wait (enqueue to first request) latency (Tick)
testsys.cpu_cluster.cpus0.mmu.dtb_walker.walkWaitTime::total          655                       # Table walker wait (enqueue to first request) latency (Tick)
testsys.cpu_cluster.cpus0.mmu.dtb_walker.pageSizes::4KiB          605     97.42%     97.42% # Table walker page sizes translated (Count)
testsys.cpu_cluster.cpus0.mmu.dtb_walker.pageSizes::2MiB           16      2.58%    100.00% # Table walker page sizes translated (Count)
testsys.cpu_cluster.cpus0.mmu.dtb_walker.pageSizes::total          621                       # Table walker page sizes translated (Count)
testsys.cpu_cluster.cpus0.mmu.dtb_walker.requestOrigin_Requested::Data          655                       # Table walker requests started/completed, data/inst (Count)
testsys.cpu_cluster.cpus0.mmu.dtb_walker.requestOrigin_Requested::Inst            0                       # Table walker requests started/completed, data/inst (Count)
testsys.cpu_cluster.cpus0.mmu.dtb_walker.requestOrigin_Requested::total          655                       # Table walker requests started/completed, data/inst (Count)
testsys.cpu_cluster.cpus0.mmu.dtb_walker.requestOrigin_Completed::Data          621                       # Table walker requests started/completed, data/inst (Count)
testsys.cpu_cluster.cpus0.mmu.dtb_walker.requestOrigin_Completed::Inst            0                       # Table walker requests started/completed, data/inst (Count)
testsys.cpu_cluster.cpus0.mmu.dtb_walker.requestOrigin_Completed::total          621                       # Table walker requests started/completed, data/inst (Count)
testsys.cpu_cluster.cpus0.mmu.dtb_walker.requestOrigin::total         1276                       # Table walker requests started/completed, data/inst (Count)
testsys.cpu_cluster.cpus0.mmu.dtb_walker.power_state.pwrStateResidencyTicks::UNDEFINED 299043753750                       # Cumulative time (in ticks) in various power states (Tick)
testsys.cpu_cluster.cpus0.mmu.itb.instHits       809438                       # ITB inst hits (Count)
testsys.cpu_cluster.cpus0.mmu.itb.instMisses          434                       # ITB inst misses (Count)
testsys.cpu_cluster.cpus0.mmu.itb.readHits            0                       # DTB read hits (Count)
testsys.cpu_cluster.cpus0.mmu.itb.readMisses            0                       # DTB read misses (Count)
testsys.cpu_cluster.cpus0.mmu.itb.writeHits            0                       # DTB write hits (Count)
testsys.cpu_cluster.cpus0.mmu.itb.writeMisses            0                       # DTB write misses (Count)
testsys.cpu_cluster.cpus0.mmu.itb.inserts          409                       # Number of times an entry is inserted into the TLB (Count)
testsys.cpu_cluster.cpus0.mmu.itb.flushTlb            0                       # Number of times complete TLB was flushed (Count)
testsys.cpu_cluster.cpus0.mmu.itb.flushTlbMva            0                       # Number of times TLB was flushed by MVA (Count)
testsys.cpu_cluster.cpus0.mmu.itb.flushTlbMvaAsid           41                       # Number of times TLB was flushed by MVA & ASID (Count)
testsys.cpu_cluster.cpus0.mmu.itb.flushTlbAsid            3                       # Number of times TLB was flushed by ASID (Count)
testsys.cpu_cluster.cpus0.mmu.itb.flushedEntries          115                       # Number of entries that have been flushed from TLB (Count)
testsys.cpu_cluster.cpus0.mmu.itb.alignFaults            0                       # Number of TLB faults due to alignment restrictions (Count)
testsys.cpu_cluster.cpus0.mmu.itb.prefetchFaults            0                       # Number of TLB faults due to prefetch (Count)
testsys.cpu_cluster.cpus0.mmu.itb.domainFaults            0                       # Number of TLB faults due to domain restrictions (Count)
testsys.cpu_cluster.cpus0.mmu.itb.permsFaults            0                       # Number of TLB faults due to permissions restrictions (Count)
testsys.cpu_cluster.cpus0.mmu.itb.readAccesses            0                       # DTB read accesses (Count)
testsys.cpu_cluster.cpus0.mmu.itb.writeAccesses            0                       # DTB write accesses (Count)
testsys.cpu_cluster.cpus0.mmu.itb.instAccesses       809872                       # ITB inst accesses (Count)
testsys.cpu_cluster.cpus0.mmu.itb.hits         809438                       # Total TLB (inst and data) hits (Count)
testsys.cpu_cluster.cpus0.mmu.itb.misses          434                       # Total TLB (inst and data) misses (Count)
testsys.cpu_cluster.cpus0.mmu.itb.accesses       809872                       # Total TLB (inst and data) accesses (Count)
testsys.cpu_cluster.cpus0.mmu.itb_walker.walks          434                       # Table walker walks requested (Count)
testsys.cpu_cluster.cpus0.mmu.itb_walker.walksLongDescriptor          434                       # Table walker walks initiated with long descriptors (Count)
testsys.cpu_cluster.cpus0.mmu.itb_walker.walkWaitTime::samples          434                       # Table walker wait (enqueue to first request) latency (Tick)
testsys.cpu_cluster.cpus0.mmu.itb_walker.walkWaitTime::0          434    100.00%    100.00% # Table walker wait (enqueue to first request) latency (Tick)
testsys.cpu_cluster.cpus0.mmu.itb_walker.walkWaitTime::total          434                       # Table walker wait (enqueue to first request) latency (Tick)
testsys.cpu_cluster.cpus0.mmu.itb_walker.pageSizes::4KiB          398     97.31%     97.31% # Table walker page sizes translated (Count)
testsys.cpu_cluster.cpus0.mmu.itb_walker.pageSizes::2MiB           11      2.69%    100.00% # Table walker page sizes translated (Count)
testsys.cpu_cluster.cpus0.mmu.itb_walker.pageSizes::total          409                       # Table walker page sizes translated (Count)
testsys.cpu_cluster.cpus0.mmu.itb_walker.requestOrigin_Requested::Data            0                       # Table walker requests started/completed, data/inst (Count)
testsys.cpu_cluster.cpus0.mmu.itb_walker.requestOrigin_Requested::Inst          434                       # Table walker requests started/completed, data/inst (Count)
testsys.cpu_cluster.cpus0.mmu.itb_walker.requestOrigin_Requested::total          434                       # Table walker requests started/completed, data/inst (Count)
testsys.cpu_cluster.cpus0.mmu.itb_walker.requestOrigin_Completed::Data            0                       # Table walker requests started/completed, data/inst (Count)
testsys.cpu_cluster.cpus0.mmu.itb_walker.requestOrigin_Completed::Inst          409                       # Table walker requests started/completed, data/inst (Count)
testsys.cpu_cluster.cpus0.mmu.itb_walker.requestOrigin_Completed::total          409                       # Table walker requests started/completed, data/inst (Count)
testsys.cpu_cluster.cpus0.mmu.itb_walker.requestOrigin::total          843                       # Table walker requests started/completed, data/inst (Count)
testsys.cpu_cluster.cpus0.mmu.itb_walker.power_state.pwrStateResidencyTicks::UNDEFINED 299043753750                       # Cumulative time (in ticks) in various power states (Tick)
testsys.cpu_cluster.cpus0.mmu.stage2_dtb.instHits            0                       # ITB inst hits (Count)
testsys.cpu_cluster.cpus0.mmu.stage2_dtb.instMisses            0                       # ITB inst misses (Count)
testsys.cpu_cluster.cpus0.mmu.stage2_dtb.readHits            0                       # DTB read hits (Count)
testsys.cpu_cluster.cpus0.mmu.stage2_dtb.readMisses            0                       # DTB read misses (Count)
testsys.cpu_cluster.cpus0.mmu.stage2_dtb.writeHits            0                       # DTB write hits (Count)
testsys.cpu_cluster.cpus0.mmu.stage2_dtb.writeMisses            0                       # DTB write misses (Count)
testsys.cpu_cluster.cpus0.mmu.stage2_dtb.inserts            0                       # Number of times an entry is inserted into the TLB (Count)
testsys.cpu_cluster.cpus0.mmu.stage2_dtb.flushTlb            0                       # Number of times complete TLB was flushed (Count)
testsys.cpu_cluster.cpus0.mmu.stage2_dtb.flushTlbMva            0                       # Number of times TLB was flushed by MVA (Count)
testsys.cpu_cluster.cpus0.mmu.stage2_dtb.flushTlbMvaAsid            0                       # Number of times TLB was flushed by MVA & ASID (Count)
testsys.cpu_cluster.cpus0.mmu.stage2_dtb.flushTlbAsid            0                       # Number of times TLB was flushed by ASID (Count)
testsys.cpu_cluster.cpus0.mmu.stage2_dtb.flushedEntries            0                       # Number of entries that have been flushed from TLB (Count)
testsys.cpu_cluster.cpus0.mmu.stage2_dtb.alignFaults            0                       # Number of TLB faults due to alignment restrictions (Count)
testsys.cpu_cluster.cpus0.mmu.stage2_dtb.prefetchFaults            0                       # Number of TLB faults due to prefetch (Count)
testsys.cpu_cluster.cpus0.mmu.stage2_dtb.domainFaults            0                       # Number of TLB faults due to domain restrictions (Count)
testsys.cpu_cluster.cpus0.mmu.stage2_dtb.permsFaults            0                       # Number of TLB faults due to permissions restrictions (Count)
testsys.cpu_cluster.cpus0.mmu.stage2_dtb.readAccesses            0                       # DTB read accesses (Count)
testsys.cpu_cluster.cpus0.mmu.stage2_dtb.writeAccesses            0                       # DTB write accesses (Count)
testsys.cpu_cluster.cpus0.mmu.stage2_dtb.instAccesses            0                       # ITB inst accesses (Count)
testsys.cpu_cluster.cpus0.mmu.stage2_dtb.hits            0                       # Total TLB (inst and data) hits (Count)
testsys.cpu_cluster.cpus0.mmu.stage2_dtb.misses            0                       # Total TLB (inst and data) misses (Count)
testsys.cpu_cluster.cpus0.mmu.stage2_dtb.accesses            0                       # Total TLB (inst and data) accesses (Count)
testsys.cpu_cluster.cpus0.mmu.stage2_dtb_walker.walks            0                       # Table walker walks requested (Count)
testsys.cpu_cluster.cpus0.mmu.stage2_dtb_walker.requestOrigin_Requested::Data            0                       # Table walker requests started/completed, data/inst (Count)
testsys.cpu_cluster.cpus0.mmu.stage2_dtb_walker.requestOrigin_Requested::Inst            0                       # Table walker requests started/completed, data/inst (Count)
testsys.cpu_cluster.cpus0.mmu.stage2_dtb_walker.requestOrigin_Requested::total            0                       # Table walker requests started/completed, data/inst (Count)
testsys.cpu_cluster.cpus0.mmu.stage2_dtb_walker.requestOrigin_Completed::Data            0                       # Table walker requests started/completed, data/inst (Count)
testsys.cpu_cluster.cpus0.mmu.stage2_dtb_walker.requestOrigin_Completed::Inst            0                       # Table walker requests started/completed, data/inst (Count)
testsys.cpu_cluster.cpus0.mmu.stage2_dtb_walker.requestOrigin_Completed::total            0                       # Table walker requests started/completed, data/inst (Count)
testsys.cpu_cluster.cpus0.mmu.stage2_dtb_walker.requestOrigin::total            0                       # Table walker requests started/completed, data/inst (Count)
testsys.cpu_cluster.cpus0.mmu.stage2_dtb_walker.power_state.pwrStateResidencyTicks::UNDEFINED 299043753750                       # Cumulative time (in ticks) in various power states (Tick)
testsys.cpu_cluster.cpus0.mmu.stage2_itb.instHits            0                       # ITB inst hits (Count)
testsys.cpu_cluster.cpus0.mmu.stage2_itb.instMisses            0                       # ITB inst misses (Count)
testsys.cpu_cluster.cpus0.mmu.stage2_itb.readHits            0                       # DTB read hits (Count)
testsys.cpu_cluster.cpus0.mmu.stage2_itb.readMisses            0                       # DTB read misses (Count)
testsys.cpu_cluster.cpus0.mmu.stage2_itb.writeHits            0                       # DTB write hits (Count)
testsys.cpu_cluster.cpus0.mmu.stage2_itb.writeMisses            0                       # DTB write misses (Count)
testsys.cpu_cluster.cpus0.mmu.stage2_itb.inserts            0                       # Number of times an entry is inserted into the TLB (Count)
testsys.cpu_cluster.cpus0.mmu.stage2_itb.flushTlb            0                       # Number of times complete TLB was flushed (Count)
testsys.cpu_cluster.cpus0.mmu.stage2_itb.flushTlbMva            0                       # Number of times TLB was flushed by MVA (Count)
testsys.cpu_cluster.cpus0.mmu.stage2_itb.flushTlbMvaAsid            0                       # Number of times TLB was flushed by MVA & ASID (Count)
testsys.cpu_cluster.cpus0.mmu.stage2_itb.flushTlbAsid            0                       # Number of times TLB was flushed by ASID (Count)
testsys.cpu_cluster.cpus0.mmu.stage2_itb.flushedEntries            0                       # Number of entries that have been flushed from TLB (Count)
testsys.cpu_cluster.cpus0.mmu.stage2_itb.alignFaults            0                       # Number of TLB faults due to alignment restrictions (Count)
testsys.cpu_cluster.cpus0.mmu.stage2_itb.prefetchFaults            0                       # Number of TLB faults due to prefetch (Count)
testsys.cpu_cluster.cpus0.mmu.stage2_itb.domainFaults            0                       # Number of TLB faults due to domain restrictions (Count)
testsys.cpu_cluster.cpus0.mmu.stage2_itb.permsFaults            0                       # Number of TLB faults due to permissions restrictions (Count)
testsys.cpu_cluster.cpus0.mmu.stage2_itb.readAccesses            0                       # DTB read accesses (Count)
testsys.cpu_cluster.cpus0.mmu.stage2_itb.writeAccesses            0                       # DTB write accesses (Count)
testsys.cpu_cluster.cpus0.mmu.stage2_itb.instAccesses            0                       # ITB inst accesses (Count)
testsys.cpu_cluster.cpus0.mmu.stage2_itb.hits            0                       # Total TLB (inst and data) hits (Count)
testsys.cpu_cluster.cpus0.mmu.stage2_itb.misses            0                       # Total TLB (inst and data) misses (Count)
testsys.cpu_cluster.cpus0.mmu.stage2_itb.accesses            0                       # Total TLB (inst and data) accesses (Count)
testsys.cpu_cluster.cpus0.mmu.stage2_itb_walker.walks            0                       # Table walker walks requested (Count)
testsys.cpu_cluster.cpus0.mmu.stage2_itb_walker.requestOrigin_Requested::Data            0                       # Table walker requests started/completed, data/inst (Count)
testsys.cpu_cluster.cpus0.mmu.stage2_itb_walker.requestOrigin_Requested::Inst            0                       # Table walker requests started/completed, data/inst (Count)
testsys.cpu_cluster.cpus0.mmu.stage2_itb_walker.requestOrigin_Requested::total            0                       # Table walker requests started/completed, data/inst (Count)
testsys.cpu_cluster.cpus0.mmu.stage2_itb_walker.requestOrigin_Completed::Data            0                       # Table walker requests started/completed, data/inst (Count)
testsys.cpu_cluster.cpus0.mmu.stage2_itb_walker.requestOrigin_Completed::Inst            0                       # Table walker requests started/completed, data/inst (Count)
testsys.cpu_cluster.cpus0.mmu.stage2_itb_walker.requestOrigin_Completed::total            0                       # Table walker requests started/completed, data/inst (Count)
testsys.cpu_cluster.cpus0.mmu.stage2_itb_walker.requestOrigin::total            0                       # Table walker requests started/completed, data/inst (Count)
testsys.cpu_cluster.cpus0.mmu.stage2_itb_walker.power_state.pwrStateResidencyTicks::UNDEFINED 299043753750                       # Cumulative time (in ticks) in various power states (Tick)
testsys.cpu_cluster.cpus0.power_state.numTransitions            6                       # Number of power state transitions (Count)
testsys.cpu_cluster.cpus0.power_state.ticksClkGated::samples            3                       # Distribution of time spent in the clock gated state (Tick)
testsys.cpu_cluster.cpus0.power_state.ticksClkGated::mean     17808248                       # Distribution of time spent in the clock gated state (Tick)
testsys.cpu_cluster.cpus0.power_state.ticksClkGated::stdev 20295740.401671                       # Distribution of time spent in the clock gated state (Tick)
testsys.cpu_cluster.cpus0.power_state.ticksClkGated::1000-5e+10            3    100.00%    100.00% # Distribution of time spent in the clock gated state (Tick)
testsys.cpu_cluster.cpus0.power_state.ticksClkGated::min_value       602750                       # Distribution of time spent in the clock gated state (Tick)
testsys.cpu_cluster.cpus0.power_state.ticksClkGated::max_value     40191244                       # Distribution of time spent in the clock gated state (Tick)
testsys.cpu_cluster.cpus0.power_state.ticksClkGated::total            3                       # Distribution of time spent in the clock gated state (Tick)
testsys.cpu_cluster.cpus0.power_state.pwrStateResidencyTicks::ON    344734006                       # Cumulative time (in ticks) in various power states (Tick)
testsys.cpu_cluster.cpus0.power_state.pwrStateResidencyTicks::CLK_GATED     53424744                       # Cumulative time (in ticks) in various power states (Tick)
testsys.cpu_cluster.cpus0.thread_0.numInsts            0                       # Number of Instructions committed (Count)
testsys.cpu_cluster.cpus0.thread_0.numOps            0                       # Number of Ops committed (Count)
testsys.cpu_cluster.cpus0.thread_0.numMemRefs            0                       # Number of Memory References (Count)
testsys.cpu_cluster.cpus1.numCycles            676144                       # Number of cpu cycles simulated (Cycle)
testsys.cpu_cluster.cpus1.numWorkItemsStarted            0                       # Number of work items this cpu started (Count)
testsys.cpu_cluster.cpus1.numWorkItemsCompleted            0                       # Number of work items this cpu completed (Count)
testsys.cpu_cluster.cpus1.exec_context.thread_0.numInsts       207104                       # Number of instructions committed (Count)
testsys.cpu_cluster.cpus1.exec_context.thread_0.numOps       244470                       # Number of ops (including micro ops) committed (Count)
testsys.cpu_cluster.cpus1.exec_context.thread_0.numIntAluAccesses       221912                       # Number of integer alu accesses (Count)
testsys.cpu_cluster.cpus1.exec_context.thread_0.numFpAluAccesses            0                       # Number of float alu accesses (Count)
testsys.cpu_cluster.cpus1.exec_context.thread_0.numVecAluAccesses          846                       # Number of vector alu accesses (Count)
testsys.cpu_cluster.cpus1.exec_context.thread_0.numCallsReturns        10160                       # Number of times a function call or return occured (Count)
testsys.cpu_cluster.cpus1.exec_context.thread_0.numCondCtrlInsts        28465                       # Number of instructions that are conditional controls (Count)
testsys.cpu_cluster.cpus1.exec_context.thread_0.numIntInsts       221912                       # Number of integer instructions (Count)
testsys.cpu_cluster.cpus1.exec_context.thread_0.numFpInsts            0                       # Number of float instructions (Count)
testsys.cpu_cluster.cpus1.exec_context.thread_0.numVecInsts          846                       # Number of vector instructions (Count)
testsys.cpu_cluster.cpus1.exec_context.thread_0.numIntRegReads       309675                       # Number of times the integer registers were read (Count)
testsys.cpu_cluster.cpus1.exec_context.thread_0.numIntRegWrites       181578                       # Number of times the integer registers were written (Count)
testsys.cpu_cluster.cpus1.exec_context.thread_0.numFpRegReads            0                       # Number of times the floating registers were read (Count)
testsys.cpu_cluster.cpus1.exec_context.thread_0.numFpRegWrites            0                       # Number of times the floating registers were written (Count)
testsys.cpu_cluster.cpus1.exec_context.thread_0.numVecRegReads          672                       # Number of times the vector registers were read (Count)
testsys.cpu_cluster.cpus1.exec_context.thread_0.numVecRegWrites          182                       # Number of times the vector registers were written (Count)
testsys.cpu_cluster.cpus1.exec_context.thread_0.numVecPredRegReads            0                       # Number of times the predicate registers were read (Count)
testsys.cpu_cluster.cpus1.exec_context.thread_0.numVecPredRegWrites            0                       # Number of times the predicate registers were written (Count)
testsys.cpu_cluster.cpus1.exec_context.thread_0.numCCRegReads        49155                       # Number of times the CC registers were read (Count)
testsys.cpu_cluster.cpus1.exec_context.thread_0.numCCRegWrites        48324                       # Number of times the CC registers were written (Count)
testsys.cpu_cluster.cpus1.exec_context.thread_0.numMemRefs        78892                       # Number of memory refs (Count)
testsys.cpu_cluster.cpus1.exec_context.thread_0.numLoadInsts        44774                       # Number of load instructions (Count)
testsys.cpu_cluster.cpus1.exec_context.thread_0.numStoreInsts        34118                       # Number of store instructions (Count)
testsys.cpu_cluster.cpus1.exec_context.thread_0.numIdleCycles 532444.850303                       # Number of idle cycles (Cycle)
testsys.cpu_cluster.cpus1.exec_context.thread_0.numBusyCycles 143699.149697                       # Number of busy cycles (Cycle)
testsys.cpu_cluster.cpus1.exec_context.thread_0.notIdleFraction     0.212527                       # Percentage of non-idle cycles (Ratio)
testsys.cpu_cluster.cpus1.exec_context.thread_0.idleFraction     0.787473                       # Percentage of idle cycles (Ratio)
testsys.cpu_cluster.cpus1.exec_context.thread_0.numBranches        43048                       # Number of branches fetched (Count)
testsys.cpu_cluster.cpus1.exec_context.thread_0.statExecutedInstType::No_OpClass          144      0.06%      0.06% # Class of executed instruction. (Count)
testsys.cpu_cluster.cpus1.exec_context.thread_0.statExecutedInstType::IntAlu       164959     67.47%     67.53% # Class of executed instruction. (Count)
testsys.cpu_cluster.cpus1.exec_context.thread_0.statExecutedInstType::IntMult          321      0.13%     67.66% # Class of executed instruction. (Count)
testsys.cpu_cluster.cpus1.exec_context.thread_0.statExecutedInstType::IntDiv           70      0.03%     67.69% # Class of executed instruction. (Count)
testsys.cpu_cluster.cpus1.exec_context.thread_0.statExecutedInstType::FloatAdd            0      0.00%     67.69% # Class of executed instruction. (Count)
testsys.cpu_cluster.cpus1.exec_context.thread_0.statExecutedInstType::FloatCmp            0      0.00%     67.69% # Class of executed instruction. (Count)
testsys.cpu_cluster.cpus1.exec_context.thread_0.statExecutedInstType::FloatCvt            0      0.00%     67.69% # Class of executed instruction. (Count)
testsys.cpu_cluster.cpus1.exec_context.thread_0.statExecutedInstType::FloatMult            0      0.00%     67.69% # Class of executed instruction. (Count)
testsys.cpu_cluster.cpus1.exec_context.thread_0.statExecutedInstType::FloatMultAcc            0      0.00%     67.69% # Class of executed instruction. (Count)
testsys.cpu_cluster.cpus1.exec_context.thread_0.statExecutedInstType::FloatDiv            0      0.00%     67.69% # Class of executed instruction. (Count)
testsys.cpu_cluster.cpus1.exec_context.thread_0.statExecutedInstType::FloatMisc           86      0.04%     67.72% # Class of executed instruction. (Count)
testsys.cpu_cluster.cpus1.exec_context.thread_0.statExecutedInstType::FloatSqrt            0      0.00%     67.72% # Class of executed instruction. (Count)
testsys.cpu_cluster.cpus1.exec_context.thread_0.statExecutedInstType::SimdAdd            0      0.00%     67.72% # Class of executed instruction. (Count)
testsys.cpu_cluster.cpus1.exec_context.thread_0.statExecutedInstType::SimdAddAcc            0      0.00%     67.72% # Class of executed instruction. (Count)
testsys.cpu_cluster.cpus1.exec_context.thread_0.statExecutedInstType::SimdAlu            0      0.00%     67.72% # Class of executed instruction. (Count)
testsys.cpu_cluster.cpus1.exec_context.thread_0.statExecutedInstType::SimdCmp            0      0.00%     67.72% # Class of executed instruction. (Count)
testsys.cpu_cluster.cpus1.exec_context.thread_0.statExecutedInstType::SimdCvt            0      0.00%     67.72% # Class of executed instruction. (Count)
testsys.cpu_cluster.cpus1.exec_context.thread_0.statExecutedInstType::SimdMisc           26      0.01%     67.73% # Class of executed instruction. (Count)
testsys.cpu_cluster.cpus1.exec_context.thread_0.statExecutedInstType::SimdMult            0      0.00%     67.73% # Class of executed instruction. (Count)
testsys.cpu_cluster.cpus1.exec_context.thread_0.statExecutedInstType::SimdMultAcc            0      0.00%     67.73% # Class of executed instruction. (Count)
testsys.cpu_cluster.cpus1.exec_context.thread_0.statExecutedInstType::SimdShift            0      0.00%     67.73% # Class of executed instruction. (Count)
testsys.cpu_cluster.cpus1.exec_context.thread_0.statExecutedInstType::SimdShiftAcc            0      0.00%     67.73% # Class of executed instruction. (Count)
testsys.cpu_cluster.cpus1.exec_context.thread_0.statExecutedInstType::SimdDiv            0      0.00%     67.73% # Class of executed instruction. (Count)
testsys.cpu_cluster.cpus1.exec_context.thread_0.statExecutedInstType::SimdSqrt            0      0.00%     67.73% # Class of executed instruction. (Count)
testsys.cpu_cluster.cpus1.exec_context.thread_0.statExecutedInstType::SimdFloatAdd            0      0.00%     67.73% # Class of executed instruction. (Count)
testsys.cpu_cluster.cpus1.exec_context.thread_0.statExecutedInstType::SimdFloatAlu            0      0.00%     67.73% # Class of executed instruction. (Count)
testsys.cpu_cluster.cpus1.exec_context.thread_0.statExecutedInstType::SimdFloatCmp            0      0.00%     67.73% # Class of executed instruction. (Count)
testsys.cpu_cluster.cpus1.exec_context.thread_0.statExecutedInstType::SimdFloatCvt            0      0.00%     67.73% # Class of executed instruction. (Count)
testsys.cpu_cluster.cpus1.exec_context.thread_0.statExecutedInstType::SimdFloatDiv            0      0.00%     67.73% # Class of executed instruction. (Count)
testsys.cpu_cluster.cpus1.exec_context.thread_0.statExecutedInstType::SimdFloatMisc            0      0.00%     67.73% # Class of executed instruction. (Count)
testsys.cpu_cluster.cpus1.exec_context.thread_0.statExecutedInstType::SimdFloatMult            0      0.00%     67.73% # Class of executed instruction. (Count)
testsys.cpu_cluster.cpus1.exec_context.thread_0.statExecutedInstType::SimdFloatMultAcc            0      0.00%     67.73% # Class of executed instruction. (Count)
testsys.cpu_cluster.cpus1.exec_context.thread_0.statExecutedInstType::SimdFloatSqrt            0      0.00%     67.73% # Class of executed instruction. (Count)
testsys.cpu_cluster.cpus1.exec_context.thread_0.statExecutedInstType::SimdReduceAdd            0      0.00%     67.73% # Class of executed instruction. (Count)
testsys.cpu_cluster.cpus1.exec_context.thread_0.statExecutedInstType::SimdReduceAlu            0      0.00%     67.73% # Class of executed instruction. (Count)
testsys.cpu_cluster.cpus1.exec_context.thread_0.statExecutedInstType::SimdReduceCmp            0      0.00%     67.73% # Class of executed instruction. (Count)
testsys.cpu_cluster.cpus1.exec_context.thread_0.statExecutedInstType::SimdFloatReduceAdd            0      0.00%     67.73% # Class of executed instruction. (Count)
testsys.cpu_cluster.cpus1.exec_context.thread_0.statExecutedInstType::SimdFloatReduceCmp            0      0.00%     67.73% # Class of executed instruction. (Count)
testsys.cpu_cluster.cpus1.exec_context.thread_0.statExecutedInstType::SimdAes            0      0.00%     67.73% # Class of executed instruction. (Count)
testsys.cpu_cluster.cpus1.exec_context.thread_0.statExecutedInstType::SimdAesMix            0      0.00%     67.73% # Class of executed instruction. (Count)
testsys.cpu_cluster.cpus1.exec_context.thread_0.statExecutedInstType::SimdSha1Hash            0      0.00%     67.73% # Class of executed instruction. (Count)
testsys.cpu_cluster.cpus1.exec_context.thread_0.statExecutedInstType::SimdSha1Hash2            0      0.00%     67.73% # Class of executed instruction. (Count)
testsys.cpu_cluster.cpus1.exec_context.thread_0.statExecutedInstType::SimdSha256Hash            0      0.00%     67.73% # Class of executed instruction. (Count)
testsys.cpu_cluster.cpus1.exec_context.thread_0.statExecutedInstType::SimdSha256Hash2            0      0.00%     67.73% # Class of executed instruction. (Count)
testsys.cpu_cluster.cpus1.exec_context.thread_0.statExecutedInstType::SimdShaSigma2            0      0.00%     67.73% # Class of executed instruction. (Count)
testsys.cpu_cluster.cpus1.exec_context.thread_0.statExecutedInstType::SimdShaSigma3            0      0.00%     67.73% # Class of executed instruction. (Count)
testsys.cpu_cluster.cpus1.exec_context.thread_0.statExecutedInstType::SimdPredAlu            0      0.00%     67.73% # Class of executed instruction. (Count)
testsys.cpu_cluster.cpus1.exec_context.thread_0.statExecutedInstType::MemRead        44774     18.31%     86.05% # Class of executed instruction. (Count)
testsys.cpu_cluster.cpus1.exec_context.thread_0.statExecutedInstType::MemWrite        34118     13.95%    100.00% # Class of executed instruction. (Count)
testsys.cpu_cluster.cpus1.exec_context.thread_0.statExecutedInstType::FloatMemRead            0      0.00%    100.00% # Class of executed instruction. (Count)
testsys.cpu_cluster.cpus1.exec_context.thread_0.statExecutedInstType::FloatMemWrite            0      0.00%    100.00% # Class of executed instruction. (Count)
testsys.cpu_cluster.cpus1.exec_context.thread_0.statExecutedInstType::IprAccess            0      0.00%    100.00% # Class of executed instruction. (Count)
testsys.cpu_cluster.cpus1.exec_context.thread_0.statExecutedInstType::InstPrefetch            0      0.00%    100.00% # Class of executed instruction. (Count)
testsys.cpu_cluster.cpus1.exec_context.thread_0.statExecutedInstType::total       244498                       # Class of executed instruction. (Count)
testsys.cpu_cluster.cpus1.mmu.dtb.instHits            0                       # ITB inst hits (Count)
testsys.cpu_cluster.cpus1.mmu.dtb.instMisses            0                       # ITB inst misses (Count)
testsys.cpu_cluster.cpus1.mmu.dtb.readHits        44313                       # DTB read hits (Count)
testsys.cpu_cluster.cpus1.mmu.dtb.readMisses          475                       # DTB read misses (Count)
testsys.cpu_cluster.cpus1.mmu.dtb.writeHits        34029                       # DTB write hits (Count)
testsys.cpu_cluster.cpus1.mmu.dtb.writeMisses           93                       # DTB write misses (Count)
testsys.cpu_cluster.cpus1.mmu.dtb.inserts          565                       # Number of times an entry is inserted into the TLB (Count)
testsys.cpu_cluster.cpus1.mmu.dtb.flushTlb            0                       # Number of times complete TLB was flushed (Count)
testsys.cpu_cluster.cpus1.mmu.dtb.flushTlbMva            0                       # Number of times TLB was flushed by MVA (Count)
testsys.cpu_cluster.cpus1.mmu.dtb.flushTlbMvaAsid           41                       # Number of times TLB was flushed by MVA & ASID (Count)
testsys.cpu_cluster.cpus1.mmu.dtb.flushTlbAsid            3                       # Number of times TLB was flushed by ASID (Count)
testsys.cpu_cluster.cpus1.mmu.dtb.flushedEntries           73                       # Number of entries that have been flushed from TLB (Count)
testsys.cpu_cluster.cpus1.mmu.dtb.alignFaults            0                       # Number of TLB faults due to alignment restrictions (Count)
testsys.cpu_cluster.cpus1.mmu.dtb.prefetchFaults            3                       # Number of TLB faults due to prefetch (Count)
testsys.cpu_cluster.cpus1.mmu.dtb.domainFaults            0                       # Number of TLB faults due to domain restrictions (Count)
testsys.cpu_cluster.cpus1.mmu.dtb.permsFaults           10                       # Number of TLB faults due to permissions restrictions (Count)
testsys.cpu_cluster.cpus1.mmu.dtb.readAccesses        44788                       # DTB read accesses (Count)
testsys.cpu_cluster.cpus1.mmu.dtb.writeAccesses        34122                       # DTB write accesses (Count)
testsys.cpu_cluster.cpus1.mmu.dtb.instAccesses            0                       # ITB inst accesses (Count)
testsys.cpu_cluster.cpus1.mmu.dtb.hits          78342                       # Total TLB (inst and data) hits (Count)
testsys.cpu_cluster.cpus1.mmu.dtb.misses          568                       # Total TLB (inst and data) misses (Count)
testsys.cpu_cluster.cpus1.mmu.dtb.accesses        78910                       # Total TLB (inst and data) accesses (Count)
testsys.cpu_cluster.cpus1.mmu.dtb_walker.walks          565                       # Table walker walks requested (Count)
testsys.cpu_cluster.cpus1.mmu.dtb_walker.walksLongDescriptor          565                       # Table walker walks initiated with long descriptors (Count)
testsys.cpu_cluster.cpus1.mmu.dtb_walker.walkWaitTime::samples          565                       # Table walker wait (enqueue to first request) latency (Tick)
testsys.cpu_cluster.cpus1.mmu.dtb_walker.walkWaitTime::0          565    100.00%    100.00% # Table walker wait (enqueue to first request) latency (Tick)
testsys.cpu_cluster.cpus1.mmu.dtb_walker.walkWaitTime::total          565                       # Table walker wait (enqueue to first request) latency (Tick)
testsys.cpu_cluster.cpus1.mmu.dtb_walker.pageSizes::4KiB          551     97.52%     97.52% # Table walker page sizes translated (Count)
testsys.cpu_cluster.cpus1.mmu.dtb_walker.pageSizes::2MiB           14      2.48%    100.00% # Table walker page sizes translated (Count)
testsys.cpu_cluster.cpus1.mmu.dtb_walker.pageSizes::total          565                       # Table walker page sizes translated (Count)
testsys.cpu_cluster.cpus1.mmu.dtb_walker.requestOrigin_Requested::Data          565                       # Table walker requests started/completed, data/inst (Count)
testsys.cpu_cluster.cpus1.mmu.dtb_walker.requestOrigin_Requested::Inst            0                       # Table walker requests started/completed, data/inst (Count)
testsys.cpu_cluster.cpus1.mmu.dtb_walker.requestOrigin_Requested::total          565                       # Table walker requests started/completed, data/inst (Count)
testsys.cpu_cluster.cpus1.mmu.dtb_walker.requestOrigin_Completed::Data          565                       # Table walker requests started/completed, data/inst (Count)
testsys.cpu_cluster.cpus1.mmu.dtb_walker.requestOrigin_Completed::Inst            0                       # Table walker requests started/completed, data/inst (Count)
testsys.cpu_cluster.cpus1.mmu.dtb_walker.requestOrigin_Completed::total          565                       # Table walker requests started/completed, data/inst (Count)
testsys.cpu_cluster.cpus1.mmu.dtb_walker.requestOrigin::total         1130                       # Table walker requests started/completed, data/inst (Count)
testsys.cpu_cluster.cpus1.mmu.dtb_walker.power_state.pwrStateResidencyTicks::UNDEFINED 299043753750                       # Cumulative time (in ticks) in various power states (Tick)
testsys.cpu_cluster.cpus1.mmu.itb.instHits       206759                       # ITB inst hits (Count)
testsys.cpu_cluster.cpus1.mmu.itb.instMisses          375                       # ITB inst misses (Count)
testsys.cpu_cluster.cpus1.mmu.itb.readHits            0                       # DTB read hits (Count)
testsys.cpu_cluster.cpus1.mmu.itb.readMisses            0                       # DTB read misses (Count)
testsys.cpu_cluster.cpus1.mmu.itb.writeHits            0                       # DTB write hits (Count)
testsys.cpu_cluster.cpus1.mmu.itb.writeMisses            0                       # DTB write misses (Count)
testsys.cpu_cluster.cpus1.mmu.itb.inserts          373                       # Number of times an entry is inserted into the TLB (Count)
testsys.cpu_cluster.cpus1.mmu.itb.flushTlb            0                       # Number of times complete TLB was flushed (Count)
testsys.cpu_cluster.cpus1.mmu.itb.flushTlbMva            0                       # Number of times TLB was flushed by MVA (Count)
testsys.cpu_cluster.cpus1.mmu.itb.flushTlbMvaAsid           41                       # Number of times TLB was flushed by MVA & ASID (Count)
testsys.cpu_cluster.cpus1.mmu.itb.flushTlbAsid            3                       # Number of times TLB was flushed by ASID (Count)
testsys.cpu_cluster.cpus1.mmu.itb.flushedEntries           62                       # Number of entries that have been flushed from TLB (Count)
testsys.cpu_cluster.cpus1.mmu.itb.alignFaults            0                       # Number of TLB faults due to alignment restrictions (Count)
testsys.cpu_cluster.cpus1.mmu.itb.prefetchFaults            0                       # Number of TLB faults due to prefetch (Count)
testsys.cpu_cluster.cpus1.mmu.itb.domainFaults            0                       # Number of TLB faults due to domain restrictions (Count)
testsys.cpu_cluster.cpus1.mmu.itb.permsFaults            0                       # Number of TLB faults due to permissions restrictions (Count)
testsys.cpu_cluster.cpus1.mmu.itb.readAccesses            0                       # DTB read accesses (Count)
testsys.cpu_cluster.cpus1.mmu.itb.writeAccesses            0                       # DTB write accesses (Count)
testsys.cpu_cluster.cpus1.mmu.itb.instAccesses       207134                       # ITB inst accesses (Count)
testsys.cpu_cluster.cpus1.mmu.itb.hits         206759                       # Total TLB (inst and data) hits (Count)
testsys.cpu_cluster.cpus1.mmu.itb.misses          375                       # Total TLB (inst and data) misses (Count)
testsys.cpu_cluster.cpus1.mmu.itb.accesses       207134                       # Total TLB (inst and data) accesses (Count)
testsys.cpu_cluster.cpus1.mmu.itb_walker.walks          375                       # Table walker walks requested (Count)
testsys.cpu_cluster.cpus1.mmu.itb_walker.walksLongDescriptor          375                       # Table walker walks initiated with long descriptors (Count)
testsys.cpu_cluster.cpus1.mmu.itb_walker.walkWaitTime::samples          375                       # Table walker wait (enqueue to first request) latency (Tick)
testsys.cpu_cluster.cpus1.mmu.itb_walker.walkWaitTime::0          375    100.00%    100.00% # Table walker wait (enqueue to first request) latency (Tick)
testsys.cpu_cluster.cpus1.mmu.itb_walker.walkWaitTime::total          375                       # Table walker wait (enqueue to first request) latency (Tick)
testsys.cpu_cluster.cpus1.mmu.itb_walker.pageSizes::4KiB          364     97.59%     97.59% # Table walker page sizes translated (Count)
testsys.cpu_cluster.cpus1.mmu.itb_walker.pageSizes::2MiB            9      2.41%    100.00% # Table walker page sizes translated (Count)
testsys.cpu_cluster.cpus1.mmu.itb_walker.pageSizes::total          373                       # Table walker page sizes translated (Count)
testsys.cpu_cluster.cpus1.mmu.itb_walker.requestOrigin_Requested::Data            0                       # Table walker requests started/completed, data/inst (Count)
testsys.cpu_cluster.cpus1.mmu.itb_walker.requestOrigin_Requested::Inst          375                       # Table walker requests started/completed, data/inst (Count)
testsys.cpu_cluster.cpus1.mmu.itb_walker.requestOrigin_Requested::total          375                       # Table walker requests started/completed, data/inst (Count)
testsys.cpu_cluster.cpus1.mmu.itb_walker.requestOrigin_Completed::Data            0                       # Table walker requests started/completed, data/inst (Count)
testsys.cpu_cluster.cpus1.mmu.itb_walker.requestOrigin_Completed::Inst          373                       # Table walker requests started/completed, data/inst (Count)
testsys.cpu_cluster.cpus1.mmu.itb_walker.requestOrigin_Completed::total          373                       # Table walker requests started/completed, data/inst (Count)
testsys.cpu_cluster.cpus1.mmu.itb_walker.requestOrigin::total          748                       # Table walker requests started/completed, data/inst (Count)
testsys.cpu_cluster.cpus1.mmu.itb_walker.power_state.pwrStateResidencyTicks::UNDEFINED 299043753750                       # Cumulative time (in ticks) in various power states (Tick)
testsys.cpu_cluster.cpus1.mmu.stage2_dtb.instHits            0                       # ITB inst hits (Count)
testsys.cpu_cluster.cpus1.mmu.stage2_dtb.instMisses            0                       # ITB inst misses (Count)
testsys.cpu_cluster.cpus1.mmu.stage2_dtb.readHits            0                       # DTB read hits (Count)
testsys.cpu_cluster.cpus1.mmu.stage2_dtb.readMisses            0                       # DTB read misses (Count)
testsys.cpu_cluster.cpus1.mmu.stage2_dtb.writeHits            0                       # DTB write hits (Count)
testsys.cpu_cluster.cpus1.mmu.stage2_dtb.writeMisses            0                       # DTB write misses (Count)
testsys.cpu_cluster.cpus1.mmu.stage2_dtb.inserts            0                       # Number of times an entry is inserted into the TLB (Count)
testsys.cpu_cluster.cpus1.mmu.stage2_dtb.flushTlb            0                       # Number of times complete TLB was flushed (Count)
testsys.cpu_cluster.cpus1.mmu.stage2_dtb.flushTlbMva            0                       # Number of times TLB was flushed by MVA (Count)
testsys.cpu_cluster.cpus1.mmu.stage2_dtb.flushTlbMvaAsid            0                       # Number of times TLB was flushed by MVA & ASID (Count)
testsys.cpu_cluster.cpus1.mmu.stage2_dtb.flushTlbAsid            0                       # Number of times TLB was flushed by ASID (Count)
testsys.cpu_cluster.cpus1.mmu.stage2_dtb.flushedEntries            0                       # Number of entries that have been flushed from TLB (Count)
testsys.cpu_cluster.cpus1.mmu.stage2_dtb.alignFaults            0                       # Number of TLB faults due to alignment restrictions (Count)
testsys.cpu_cluster.cpus1.mmu.stage2_dtb.prefetchFaults            0                       # Number of TLB faults due to prefetch (Count)
testsys.cpu_cluster.cpus1.mmu.stage2_dtb.domainFaults            0                       # Number of TLB faults due to domain restrictions (Count)
testsys.cpu_cluster.cpus1.mmu.stage2_dtb.permsFaults            0                       # Number of TLB faults due to permissions restrictions (Count)
testsys.cpu_cluster.cpus1.mmu.stage2_dtb.readAccesses            0                       # DTB read accesses (Count)
testsys.cpu_cluster.cpus1.mmu.stage2_dtb.writeAccesses            0                       # DTB write accesses (Count)
testsys.cpu_cluster.cpus1.mmu.stage2_dtb.instAccesses            0                       # ITB inst accesses (Count)
testsys.cpu_cluster.cpus1.mmu.stage2_dtb.hits            0                       # Total TLB (inst and data) hits (Count)
testsys.cpu_cluster.cpus1.mmu.stage2_dtb.misses            0                       # Total TLB (inst and data) misses (Count)
testsys.cpu_cluster.cpus1.mmu.stage2_dtb.accesses            0                       # Total TLB (inst and data) accesses (Count)
testsys.cpu_cluster.cpus1.mmu.stage2_dtb_walker.walks            0                       # Table walker walks requested (Count)
testsys.cpu_cluster.cpus1.mmu.stage2_dtb_walker.requestOrigin_Requested::Data            0                       # Table walker requests started/completed, data/inst (Count)
testsys.cpu_cluster.cpus1.mmu.stage2_dtb_walker.requestOrigin_Requested::Inst            0                       # Table walker requests started/completed, data/inst (Count)
testsys.cpu_cluster.cpus1.mmu.stage2_dtb_walker.requestOrigin_Requested::total            0                       # Table walker requests started/completed, data/inst (Count)
testsys.cpu_cluster.cpus1.mmu.stage2_dtb_walker.requestOrigin_Completed::Data            0                       # Table walker requests started/completed, data/inst (Count)
testsys.cpu_cluster.cpus1.mmu.stage2_dtb_walker.requestOrigin_Completed::Inst            0                       # Table walker requests started/completed, data/inst (Count)
testsys.cpu_cluster.cpus1.mmu.stage2_dtb_walker.requestOrigin_Completed::total            0                       # Table walker requests started/completed, data/inst (Count)
testsys.cpu_cluster.cpus1.mmu.stage2_dtb_walker.requestOrigin::total            0                       # Table walker requests started/completed, data/inst (Count)
testsys.cpu_cluster.cpus1.mmu.stage2_dtb_walker.power_state.pwrStateResidencyTicks::UNDEFINED 299043753750                       # Cumulative time (in ticks) in various power states (Tick)
testsys.cpu_cluster.cpus1.mmu.stage2_itb.instHits            0                       # ITB inst hits (Count)
testsys.cpu_cluster.cpus1.mmu.stage2_itb.instMisses            0                       # ITB inst misses (Count)
testsys.cpu_cluster.cpus1.mmu.stage2_itb.readHits            0                       # DTB read hits (Count)
testsys.cpu_cluster.cpus1.mmu.stage2_itb.readMisses            0                       # DTB read misses (Count)
testsys.cpu_cluster.cpus1.mmu.stage2_itb.writeHits            0                       # DTB write hits (Count)
testsys.cpu_cluster.cpus1.mmu.stage2_itb.writeMisses            0                       # DTB write misses (Count)
testsys.cpu_cluster.cpus1.mmu.stage2_itb.inserts            0                       # Number of times an entry is inserted into the TLB (Count)
testsys.cpu_cluster.cpus1.mmu.stage2_itb.flushTlb            0                       # Number of times complete TLB was flushed (Count)
testsys.cpu_cluster.cpus1.mmu.stage2_itb.flushTlbMva            0                       # Number of times TLB was flushed by MVA (Count)
testsys.cpu_cluster.cpus1.mmu.stage2_itb.flushTlbMvaAsid            0                       # Number of times TLB was flushed by MVA & ASID (Count)
testsys.cpu_cluster.cpus1.mmu.stage2_itb.flushTlbAsid            0                       # Number of times TLB was flushed by ASID (Count)
testsys.cpu_cluster.cpus1.mmu.stage2_itb.flushedEntries            0                       # Number of entries that have been flushed from TLB (Count)
testsys.cpu_cluster.cpus1.mmu.stage2_itb.alignFaults            0                       # Number of TLB faults due to alignment restrictions (Count)
testsys.cpu_cluster.cpus1.mmu.stage2_itb.prefetchFaults            0                       # Number of TLB faults due to prefetch (Count)
testsys.cpu_cluster.cpus1.mmu.stage2_itb.domainFaults            0                       # Number of TLB faults due to domain restrictions (Count)
testsys.cpu_cluster.cpus1.mmu.stage2_itb.permsFaults            0                       # Number of TLB faults due to permissions restrictions (Count)
testsys.cpu_cluster.cpus1.mmu.stage2_itb.readAccesses            0                       # DTB read accesses (Count)
testsys.cpu_cluster.cpus1.mmu.stage2_itb.writeAccesses            0                       # DTB write accesses (Count)
testsys.cpu_cluster.cpus1.mmu.stage2_itb.instAccesses            0                       # ITB inst accesses (Count)
testsys.cpu_cluster.cpus1.mmu.stage2_itb.hits            0                       # Total TLB (inst and data) hits (Count)
testsys.cpu_cluster.cpus1.mmu.stage2_itb.misses            0                       # Total TLB (inst and data) misses (Count)
testsys.cpu_cluster.cpus1.mmu.stage2_itb.accesses            0                       # Total TLB (inst and data) accesses (Count)
testsys.cpu_cluster.cpus1.mmu.stage2_itb_walker.walks            0                       # Table walker walks requested (Count)
testsys.cpu_cluster.cpus1.mmu.stage2_itb_walker.requestOrigin_Requested::Data            0                       # Table walker requests started/completed, data/inst (Count)
testsys.cpu_cluster.cpus1.mmu.stage2_itb_walker.requestOrigin_Requested::Inst            0                       # Table walker requests started/completed, data/inst (Count)
testsys.cpu_cluster.cpus1.mmu.stage2_itb_walker.requestOrigin_Requested::total            0                       # Table walker requests started/completed, data/inst (Count)
testsys.cpu_cluster.cpus1.mmu.stage2_itb_walker.requestOrigin_Completed::Data            0                       # Table walker requests started/completed, data/inst (Count)
testsys.cpu_cluster.cpus1.mmu.stage2_itb_walker.requestOrigin_Completed::Inst            0                       # Table walker requests started/completed, data/inst (Count)
testsys.cpu_cluster.cpus1.mmu.stage2_itb_walker.requestOrigin_Completed::total            0                       # Table walker requests started/completed, data/inst (Count)
testsys.cpu_cluster.cpus1.mmu.stage2_itb_walker.requestOrigin::total            0                       # Table walker requests started/completed, data/inst (Count)
testsys.cpu_cluster.cpus1.mmu.stage2_itb_walker.power_state.pwrStateResidencyTicks::UNDEFINED 299043753750                       # Cumulative time (in ticks) in various power states (Tick)
testsys.cpu_cluster.cpus1.power_state.numTransitions            2                       # Number of power state transitions (Count)
testsys.cpu_cluster.cpus1.power_state.ticksClkGated::samples            2                       # Distribution of time spent in the clock gated state (Tick)
testsys.cpu_cluster.cpus1.power_state.ticksClkGated::mean    119514125                       # Distribution of time spent in the clock gated state (Tick)
testsys.cpu_cluster.cpus1.power_state.ticksClkGated::stdev 16409296.740910                       # Distribution of time spent in the clock gated state (Tick)
testsys.cpu_cluster.cpus1.power_state.ticksClkGated::1000-5e+10            2    100.00%    100.00% # Distribution of time spent in the clock gated state (Tick)
testsys.cpu_cluster.cpus1.power_state.ticksClkGated::min_value    107911000                       # Distribution of time spent in the clock gated state (Tick)
testsys.cpu_cluster.cpus1.power_state.ticksClkGated::max_value    131117250                       # Distribution of time spent in the clock gated state (Tick)
testsys.cpu_cluster.cpus1.power_state.ticksClkGated::total            2                       # Distribution of time spent in the clock gated state (Tick)
testsys.cpu_cluster.cpus1.power_state.pwrStateResidencyTicks::ON     61124750                       # Cumulative time (in ticks) in various power states (Tick)
testsys.cpu_cluster.cpus1.power_state.pwrStateResidencyTicks::CLK_GATED    239028250                       # Cumulative time (in ticks) in various power states (Tick)
testsys.cpu_cluster.cpus1.thread_0.numInsts            0                       # Number of Instructions committed (Count)
testsys.cpu_cluster.cpus1.thread_0.numOps            0                       # Number of Ops committed (Count)
testsys.cpu_cluster.cpus1.thread_0.numMemRefs            0                       # Number of Memory References (Count)
testsys.cpu_cluster.voltage_domain.voltage            1                       # Voltage in Volts (Volt)
testsys.dmabridge.power_state.pwrStateResidencyTicks::UNDEFINED 299043753750                       # Cumulative time (in ticks) in various power states (Tick)
testsys.iobridge.power_state.pwrStateResidencyTicks::UNDEFINED 299043753750                       # Cumulative time (in ticks) in various power states (Tick)
testsys.iobus.transDist::ReadReq                   90                       # Transaction distribution (Count)
testsys.iobus.transDist::ReadResp                  90                       # Transaction distribution (Count)
testsys.iobus.transDist::WriteReq                 117                       # Transaction distribution (Count)
testsys.iobus.transDist::WriteResp                117                       # Transaction distribution (Count)
testsys.iobus.pktCount_testsys.iobridge.mem_side_port::testsys.pci_devices0.pio            4                       # Packet count per connected requestor and responder (Count)
testsys.iobus.pktCount_testsys.iobridge.mem_side_port::testsys.realview.uart0.pio          410                       # Packet count per connected requestor and responder (Count)
testsys.iobus.pktCount_testsys.iobridge.mem_side_port::total          414                       # Packet count per connected requestor and responder (Count)
testsys.iobus.pktCount::total                     414                       # Packet count per connected requestor and responder (Count)
testsys.iobus.pktSize_testsys.iobridge.mem_side_port::testsys.pci_devices0.pio            3                       # Cumulative packet size per connected requestor and responder (Byte)
testsys.iobus.pktSize_testsys.iobridge.mem_side_port::testsys.realview.uart0.pio          410                       # Cumulative packet size per connected requestor and responder (Byte)
testsys.iobus.pktSize_testsys.iobridge.mem_side_port::total          413                       # Cumulative packet size per connected requestor and responder (Byte)
testsys.iobus.pktSize::total                      413                       # Cumulative packet size per connected requestor and responder (Byte)
testsys.iobus.power_state.pwrStateResidencyTicks::UNDEFINED 299043753750                       # Cumulative time (in ticks) in various power states (Tick)
testsys.mem_ctrls.priorityMinLatency     0.000000000000                       # per QoS priority minimum request to response latency (Second)
testsys.mem_ctrls.priorityMaxLatency     0.000000000000                       # per QoS priority maximum request to response latency (Second)
testsys.mem_ctrls.numReadWriteTurnArounds            0                       # Number of turnarounds from READ to WRITE (Count)
testsys.mem_ctrls.numWriteReadTurnArounds            0                       # Number of turnarounds from WRITE to READ (Count)
testsys.mem_ctrls.numStayReadState                  0                       # Number of times bus staying in READ state (Count)
testsys.mem_ctrls.numStayWriteState                 0                       # Number of times bus staying in WRITE state (Count)
testsys.mem_ctrls.readReqs                          0                       # Number of read requests accepted (Count)
testsys.mem_ctrls.writeReqs                         0                       # Number of write requests accepted (Count)
testsys.mem_ctrls.readBursts                        0                       # Number of controller read bursts, including those serviced by the write queue (Count)
testsys.mem_ctrls.writeBursts                       0                       # Number of controller write bursts, including those merged in the write queue (Count)
testsys.mem_ctrls.servicedByWrQ                     0                       # Number of controller read bursts serviced by the write queue (Count)
testsys.mem_ctrls.mergedWrBursts                    0                       # Number of controller write bursts merged with an existing one (Count)
testsys.mem_ctrls.neitherReadNorWriteReqs            0                       # Number of requests that are neither read nor write (Count)
testsys.mem_ctrls.avgRdQLen                      0.00                       # Average read queue length when enqueuing ((Count/Tick))
testsys.mem_ctrls.avgWrQLen                      0.00                       # Average write queue length when enqueuing ((Count/Tick))
testsys.mem_ctrls.numRdRetry                        0                       # Number of times read queue was full causing retry (Count)
testsys.mem_ctrls.numWrRetry                        0                       # Number of times write queue was full causing retry (Count)
testsys.mem_ctrls.readPktSize::0                    0                       # Read request sizes (log2) (Count)
testsys.mem_ctrls.readPktSize::1                    0                       # Read request sizes (log2) (Count)
testsys.mem_ctrls.readPktSize::2                    0                       # Read request sizes (log2) (Count)
testsys.mem_ctrls.readPktSize::3                    0                       # Read request sizes (log2) (Count)
testsys.mem_ctrls.readPktSize::4                    0                       # Read request sizes (log2) (Count)
testsys.mem_ctrls.readPktSize::5                    0                       # Read request sizes (log2) (Count)
testsys.mem_ctrls.readPktSize::6                    0                       # Read request sizes (log2) (Count)
testsys.mem_ctrls.writePktSize::0                   0                       # Write request sizes (log2) (Count)
testsys.mem_ctrls.writePktSize::1                   0                       # Write request sizes (log2) (Count)
testsys.mem_ctrls.writePktSize::2                   0                       # Write request sizes (log2) (Count)
testsys.mem_ctrls.writePktSize::3                   0                       # Write request sizes (log2) (Count)
testsys.mem_ctrls.writePktSize::4                   0                       # Write request sizes (log2) (Count)
testsys.mem_ctrls.writePktSize::5                   0                       # Write request sizes (log2) (Count)
testsys.mem_ctrls.writePktSize::6                   0                       # Write request sizes (log2) (Count)
testsys.mem_ctrls.rdQLenPdf::0                      0                       # What read queue length does an incoming req see (Count)
testsys.mem_ctrls.rdQLenPdf::1                      0                       # What read queue length does an incoming req see (Count)
testsys.mem_ctrls.rdQLenPdf::2                      0                       # What read queue length does an incoming req see (Count)
testsys.mem_ctrls.rdQLenPdf::3                      0                       # What read queue length does an incoming req see (Count)
testsys.mem_ctrls.rdQLenPdf::4                      0                       # What read queue length does an incoming req see (Count)
testsys.mem_ctrls.rdQLenPdf::5                      0                       # What read queue length does an incoming req see (Count)
testsys.mem_ctrls.rdQLenPdf::6                      0                       # What read queue length does an incoming req see (Count)
testsys.mem_ctrls.rdQLenPdf::7                      0                       # What read queue length does an incoming req see (Count)
testsys.mem_ctrls.rdQLenPdf::8                      0                       # What read queue length does an incoming req see (Count)
testsys.mem_ctrls.rdQLenPdf::9                      0                       # What read queue length does an incoming req see (Count)
testsys.mem_ctrls.rdQLenPdf::10                     0                       # What read queue length does an incoming req see (Count)
testsys.mem_ctrls.rdQLenPdf::11                     0                       # What read queue length does an incoming req see (Count)
testsys.mem_ctrls.rdQLenPdf::12                     0                       # What read queue length does an incoming req see (Count)
testsys.mem_ctrls.rdQLenPdf::13                     0                       # What read queue length does an incoming req see (Count)
testsys.mem_ctrls.rdQLenPdf::14                     0                       # What read queue length does an incoming req see (Count)
testsys.mem_ctrls.rdQLenPdf::15                     0                       # What read queue length does an incoming req see (Count)
testsys.mem_ctrls.rdQLenPdf::16                     0                       # What read queue length does an incoming req see (Count)
testsys.mem_ctrls.rdQLenPdf::17                     0                       # What read queue length does an incoming req see (Count)
testsys.mem_ctrls.rdQLenPdf::18                     0                       # What read queue length does an incoming req see (Count)
testsys.mem_ctrls.rdQLenPdf::19                     0                       # What read queue length does an incoming req see (Count)
testsys.mem_ctrls.rdQLenPdf::20                     0                       # What read queue length does an incoming req see (Count)
testsys.mem_ctrls.rdQLenPdf::21                     0                       # What read queue length does an incoming req see (Count)
testsys.mem_ctrls.rdQLenPdf::22                     0                       # What read queue length does an incoming req see (Count)
testsys.mem_ctrls.rdQLenPdf::23                     0                       # What read queue length does an incoming req see (Count)
testsys.mem_ctrls.rdQLenPdf::24                     0                       # What read queue length does an incoming req see (Count)
testsys.mem_ctrls.rdQLenPdf::25                     0                       # What read queue length does an incoming req see (Count)
testsys.mem_ctrls.rdQLenPdf::26                     0                       # What read queue length does an incoming req see (Count)
testsys.mem_ctrls.rdQLenPdf::27                     0                       # What read queue length does an incoming req see (Count)
testsys.mem_ctrls.rdQLenPdf::28                     0                       # What read queue length does an incoming req see (Count)
testsys.mem_ctrls.rdQLenPdf::29                     0                       # What read queue length does an incoming req see (Count)
[...]
testsys.pci_devices1.power_state.pwrStateResidencyTicks::UNDEFINED 299043753750                       # Cumulative time (in ticks) in various power states (Tick)
testsys.pci_devices2.EtherDevice.postedInterrupts            0                       # Number of posts to CPU (Count)
testsys.pci_devices2.EtherDevice.descDmaReads            0                       # Number of descriptors the device read w/ DMA (Count)
testsys.pci_devices2.EtherDevice.descDmaWrites            0                       # Number of descriptors the device wrote w/ DMA (Count)
testsys.pci_devices2.EtherDevice.descDmaRdBytes            0                       # Number of descriptor bytes read w/ DMA (Count)
testsys.pci_devices2.EtherDevice.descDmaWrBytes            0                       # Number of descriptor bytes write w/ DMA (Count)
testsys.pci_devices2.EtherDevice.postedSwi            0                       # Number of software interrupts posted to CPU (Count)
testsys.pci_devices2.EtherDevice.totalSwi            0                       # Total number of Swi written to ISR (Count)
testsys.pci_devices2.EtherDevice.coalescedSwi          nan                       # Average number of Swi's coalesced into each post ((Count/Count))
testsys.pci_devices2.EtherDevice.postedRxIdle            0                       # Number of rxIdle interrupts posted to CPU (Count)
testsys.pci_devices2.EtherDevice.totalRxIdle            0                       # Total number of RxIdle written to ISR (Count)
testsys.pci_devices2.EtherDevice.coalescedRxIdle          nan                       # Average number of RxIdle's coalesced into each post ((Count/Count))
testsys.pci_devices2.EtherDevice.postedRxOk            0                       # Number of RxOk interrupts posted to CPU (Count)
testsys.pci_devices2.EtherDevice.totalRxOk            0                       # Total number of RxOk written to ISR (Count)
testsys.pci_devices2.EtherDevice.coalescedRxOk          nan                       # Average number of RxOk's coalesced into each post ((Count/Count))
testsys.pci_devices2.EtherDevice.postedRxDesc            0                       # Number of RxDesc interrupts posted to CPU (Count)
testsys.pci_devices2.EtherDevice.totalRxDesc            0                       # Total number of RxDesc written to ISR (Count)
testsys.pci_devices2.EtherDevice.coalescedRxDesc          nan                       # Average number of RxDesc's coalesced into each post ((Count/Count))
testsys.pci_devices2.EtherDevice.postedTxOk            0                       # Number of TxOk interrupts posted to CPU (Count)
testsys.pci_devices2.EtherDevice.totalTxOk            0                       # Total number of TxOk written to ISR (Count)
testsys.pci_devices2.EtherDevice.coalescedTxOk          nan                       # Average number of TxOk's coalesced into each post ((Count/Count))
testsys.pci_devices2.EtherDevice.postedTxIdle            0                       # Number of TxIdle interrupts posted to CPU (Count)
testsys.pci_devices2.EtherDevice.totalTxIdle            0                       # Total number of TxIdle written to ISR (Count)
testsys.pci_devices2.EtherDevice.coalescedTxIdle          nan                       # Average number of TxIdle's coalesced into each post ((Count/Count))
testsys.pci_devices2.EtherDevice.postedTxDesc            0                       # Number of TxDesc interrupts posted to CPU (Count)
testsys.pci_devices2.EtherDevice.totalTxDesc            0                       # Total number of TxDesc written to ISR (Count)
testsys.pci_devices2.EtherDevice.coalescedTxDesc          nan                       # Average number of TxDesc's coalesced into each post ((Count/Count))
testsys.pci_devices2.EtherDevice.postedRxOrn            0                       # Number of RxOrn posted to CPU (Count)
testsys.pci_devices2.EtherDevice.totalRxOrn            0                       # Total number of RxOrn written to ISR (Count)
testsys.pci_devices2.EtherDevice.coalescedRxOrn          nan                       # Average number of RxOrn's coalesced into each post ((Count/Count))
testsys.pci_devices2.EtherDevice.coalescedTotal          nan                       # Average number of interrupts coalesced into each post ((Count/Count))
testsys.pci_devices2.EtherDevice.droppedPackets            0                       # Number of packets dropped (Count)
testsys.pci_devices2.power_state.pwrStateResidencyTicks::UNDEFINED 299043753750                       # Cumulative time (in ticks) in various power states (Tick)
testsys.pci_devices3.EtherDevice.postedInterrupts            0                       # Number of posts to CPU (Count)
testsys.pci_devices3.EtherDevice.descDmaReads            0                       # Number of descriptors the device read w/ DMA (Count)
testsys.pci_devices3.EtherDevice.descDmaWrites            0                       # Number of descriptors the device wrote w/ DMA (Count)
testsys.pci_devices3.EtherDevice.descDmaRdBytes            0                       # Number of descriptor bytes read w/ DMA (Count)
testsys.pci_devices3.EtherDevice.descDmaWrBytes            0                       # Number of descriptor bytes write w/ DMA (Count)
testsys.pci_devices3.EtherDevice.postedSwi            0                       # Number of software interrupts posted to CPU (Count)
testsys.pci_devices3.EtherDevice.totalSwi            0                       # Total number of Swi written to ISR (Count)
testsys.pci_devices3.EtherDevice.coalescedSwi          nan                       # Average number of Swi's coalesced into each post ((Count/Count))
testsys.pci_devices3.EtherDevice.postedRxIdle            0                       # Number of rxIdle interrupts posted to CPU (Count)
testsys.pci_devices3.EtherDevice.totalRxIdle            0                       # Total number of RxIdle written to ISR (Count)
testsys.pci_devices3.EtherDevice.coalescedRxIdle          nan                       # Average number of RxIdle's coalesced into each post ((Count/Count))
testsys.pci_devices3.EtherDevice.postedRxOk            0                       # Number of RxOk interrupts posted to CPU (Count)
testsys.pci_devices3.EtherDevice.totalRxOk            0                       # Total number of RxOk written to ISR (Count)
testsys.pci_devices3.EtherDevice.coalescedRxOk          nan                       # Average number of RxOk's coalesced into each post ((Count/Count))
testsys.pci_devices3.EtherDevice.postedRxDesc            0                       # Number of RxDesc interrupts posted to CPU (Count)
testsys.pci_devices3.EtherDevice.totalRxDesc            0                       # Total number of RxDesc written to ISR (Count)
testsys.pci_devices3.EtherDevice.coalescedRxDesc          nan                       # Average number of RxDesc's coalesced into each post ((Count/Count))
testsys.pci_devices3.EtherDevice.postedTxOk            0                       # Number of TxOk interrupts posted to CPU (Count)
testsys.pci_devices3.EtherDevice.totalTxOk            0                       # Total number of TxOk written to ISR (Count)
testsys.pci_devices3.EtherDevice.coalescedTxOk          nan                       # Average number of TxOk's coalesced into each post ((Count/Count))
testsys.pci_devices3.EtherDevice.postedTxIdle            0                       # Number of TxIdle interrupts posted to CPU (Count)
testsys.pci_devices3.EtherDevice.totalTxIdle            0                       # Total number of TxIdle written to ISR (Count)
testsys.pci_devices3.EtherDevice.coalescedTxIdle          nan                       # Average number of TxIdle's coalesced into each post ((Count/Count))
testsys.pci_devices3.EtherDevice.postedTxDesc            0                       # Number of TxDesc interrupts posted to CPU (Count)
testsys.pci_devices3.EtherDevice.totalTxDesc            0                       # Total number of TxDesc written to ISR (Count)
testsys.pci_devices3.EtherDevice.coalescedTxDesc          nan                       # Average number of TxDesc's coalesced into each post ((Count/Count))
testsys.pci_devices3.EtherDevice.postedRxOrn            0                       # Number of RxOrn posted to CPU (Count)
testsys.pci_devices3.EtherDevice.totalRxOrn            0                       # Total number of RxOrn written to ISR (Count)
testsys.pci_devices3.EtherDevice.coalescedRxOrn          nan                       # Average number of RxOrn's coalesced into each post ((Count/Count))
testsys.pci_devices3.EtherDevice.coalescedTotal          nan                       # Average number of interrupts coalesced into each post ((Count/Count))
testsys.pci_devices3.EtherDevice.droppedPackets            0                       # Number of packets dropped (Count)
testsys.pci_devices3.power_state.pwrStateResidencyTicks::UNDEFINED 299043753750                       # Cumulative time (in ticks) in various power states (Tick)
testsys.pci_devices4.EtherDevice.postedInterrupts            0                       # Number of posts to CPU (Count)
testsys.pci_devices4.EtherDevice.descDmaReads            0                       # Number of descriptors the device read w/ DMA (Count)
testsys.pci_devices4.EtherDevice.descDmaWrites            0                       # Number of descriptors the device wrote w/ DMA (Count)
testsys.pci_devices4.EtherDevice.descDmaRdBytes            0                       # Number of descriptor bytes read w/ DMA (Count)
testsys.pci_devices4.EtherDevice.descDmaWrBytes            0                       # Number of descriptor bytes write w/ DMA (Count)
testsys.pci_devices4.EtherDevice.postedSwi            0                       # Number of software interrupts posted to CPU (Count)
testsys.pci_devices4.EtherDevice.totalSwi            0                       # Total number of Swi written to ISR (Count)
testsys.pci_devices4.EtherDevice.coalescedSwi          nan                       # Average number of Swi's coalesced into each post ((Count/Count))
testsys.pci_devices4.EtherDevice.postedRxIdle            0                       # Number of rxIdle interrupts posted to CPU (Count)
testsys.pci_devices4.EtherDevice.totalRxIdle            0                       # Total number of RxIdle written to ISR (Count)
testsys.pci_devices4.EtherDevice.coalescedRxIdle          nan                       # Average number of RxIdle's coalesced into each post ((Count/Count))
testsys.pci_devices4.EtherDevice.postedRxOk            0                       # Number of RxOk interrupts posted to CPU (Count)
testsys.pci_devices4.EtherDevice.totalRxOk            0                       # Total number of RxOk written to ISR (Count)
testsys.pci_devices4.EtherDevice.coalescedRxOk          nan                       # Average number of RxOk's coalesced into each post ((Count/Count))
testsys.pci_devices4.EtherDevice.postedRxDesc            0                       # Number of RxDesc interrupts posted to CPU (Count)
testsys.pci_devices4.EtherDevice.totalRxDesc            0                       # Total number of RxDesc written to ISR (Count)
testsys.pci_devices4.EtherDevice.coalescedRxDesc          nan                       # Average number of RxDesc's coalesced into each post ((Count/Count))
testsys.pci_devices4.EtherDevice.postedTxOk            0                       # Number of TxOk interrupts posted to CPU (Count)
testsys.pci_devices4.EtherDevice.totalTxOk            0                       # Total number of TxOk written to ISR (Count)
testsys.pci_devices4.EtherDevice.coalescedTxOk          nan                       # Average number of TxOk's coalesced into each post ((Count/Count))
testsys.pci_devices4.EtherDevice.postedTxIdle            0                       # Number of TxIdle interrupts posted to CPU (Count)
testsys.pci_devices4.EtherDevice.totalTxIdle            0                       # Total number of TxIdle written to ISR (Count)
testsys.pci_devices4.EtherDevice.coalescedTxIdle          nan                       # Average number of TxIdle's coalesced into each post ((Count/Count))
testsys.pci_devices4.EtherDevice.postedTxDesc            0                       # Number of TxDesc interrupts posted to CPU (Count)
testsys.pci_devices4.EtherDevice.totalTxDesc            0                       # Total number of TxDesc written to ISR (Count)
testsys.pci_devices4.EtherDevice.coalescedTxDesc          nan                       # Average number of TxDesc's coalesced into each post ((Count/Count))
testsys.pci_devices4.EtherDevice.postedRxOrn            0                       # Number of RxOrn posted to CPU (Count)
testsys.pci_devices4.EtherDevice.totalRxOrn            0                       # Total number of RxOrn written to ISR (Count)
testsys.pci_devices4.EtherDevice.coalescedRxOrn          nan                       # Average number of RxOrn's coalesced into each post ((Count/Count))
testsys.pci_devices4.EtherDevice.coalescedTotal          nan                       # Average number of interrupts coalesced into each post ((Count/Count))
testsys.pci_devices4.EtherDevice.droppedPackets            0                       # Number of packets dropped (Count)
testsys.pci_devices4.power_state.pwrStateResidencyTicks::UNDEFINED 299043753750                       # Cumulative time (in ticks) in various power states (Tick)
testsys.realview.bootmem.power_state.pwrStateResidencyTicks::UNDEFINED 299043753750                       # Cumulative time (in ticks) in various power states (Tick)
testsys.realview.clock24MHz.clock               41667                       # Clock period in ticks (Tick)
testsys.realview.clock32KHz.clock            31250000                       # Clock period in ticks (Tick)
testsys.realview.dcc.osc_cpu.clock              16667                       # Clock period in ticks (Tick)
testsys.realview.dcc.osc_ddr.clock              25000                       # Clock period in ticks (Tick)
testsys.realview.dcc.osc_hsbm.clock             25000                       # Clock period in ticks (Tick)
testsys.realview.dcc.osc_pxl.clock              42105                       # Clock period in ticks (Tick)
testsys.realview.dcc.osc_smb.clock              20000                       # Clock period in ticks (Tick)
testsys.realview.dcc.osc_sys.clock              16667                       # Clock period in ticks (Tick)
testsys.realview.el2_watchdog.power_state.pwrStateResidencyTicks::UNDEFINED 299043753750                       # Cumulative time (in ticks) in various power states (Tick)
testsys.realview.energy_ctrl.power_state.pwrStateResidencyTicks::UNDEFINED 299043753750                       # Cumulative time (in ticks) in various power states (Tick)
testsys.realview.flash0.power_state.pwrStateResidencyTicks::UNDEFINED 299043753750                       # Cumulative time (in ticks) in various power states (Tick)
testsys.realview.flash1.power_state.pwrStateResidencyTicks::UNDEFINED 299043753750                       # Cumulative time (in ticks) in various power states (Tick)
testsys.realview.generic_timer_mem.frames0.power_state.pwrStateResidencyTicks::UNDEFINED 299043753750                       # Cumulative time (in ticks) in various power states (Tick)
testsys.realview.generic_timer_mem.frames1.power_state.pwrStateResidencyTicks::UNDEFINED 299043753750                       # Cumulative time (in ticks) in various power states (Tick)
testsys.realview.generic_timer_mem.power_state.pwrStateResidencyTicks::UNDEFINED 299043753750                       # Cumulative time (in ticks) in various power states (Tick)
testsys.realview.gic.power_state.pwrStateResidencyTicks::UNDEFINED 299043753750                       # Cumulative time (in ticks) in various power states (Tick)
testsys.realview.gicv2m.power_state.pwrStateResidencyTicks::UNDEFINED 299043753750                       # Cumulative time (in ticks) in various power states (Tick)
testsys.realview.io_voltage.voltage          3.300000                       # Voltage in Volts (Volt)
testsys.realview.kmi0.power_state.pwrStateResidencyTicks::UNDEFINED 299043753750                       # Cumulative time (in ticks) in various power states (Tick)
testsys.realview.kmi1.power_state.pwrStateResidencyTicks::UNDEFINED 299043753750                       # Cumulative time (in ticks) in various power states (Tick)
testsys.realview.mcc.osc_clcd.clock             42105                       # Clock period in ticks (Tick)
testsys.realview.mcc.osc_mcc.clock              20000                       # Clock period in ticks (Tick)
testsys.realview.mcc.osc_peripheral.clock        41667                       # Clock period in ticks (Tick)
testsys.realview.mcc.osc_system_bus.clock        41667                       # Clock period in ticks (Tick)
testsys.realview.non_trusted_sram.power_state.pwrStateResidencyTicks::UNDEFINED 299043753750                       # Cumulative time (in ticks) in various power states (Tick)
testsys.realview.pci_host.power_state.pwrStateResidencyTicks::UNDEFINED 299043753750                       # Cumulative time (in ticks) in various power states (Tick)
testsys.realview.pwr_ctrl.power_state.pwrStateResidencyTicks::UNDEFINED 299043753750                       # Cumulative time (in ticks) in various power states (Tick)
testsys.realview.realview_io.power_state.pwrStateResidencyTicks::UNDEFINED 299043753750                       # Cumulative time (in ticks) in various power states (Tick)
testsys.realview.rtc.power_state.pwrStateResidencyTicks::UNDEFINED 299043753750                       # Cumulative time (in ticks) in various power states (Tick)
testsys.realview.system_watchdog.power_state.pwrStateResidencyTicks::UNDEFINED 299043753750                       # Cumulative time (in ticks) in various power states (Tick)
testsys.realview.trusted_sram.power_state.pwrStateResidencyTicks::UNDEFINED 299043753750                       # Cumulative time (in ticks) in various power states (Tick)
testsys.realview.trusted_watchdog.power_state.pwrStateResidencyTicks::UNDEFINED 299043753750                       # Cumulative time (in ticks) in various power states (Tick)
testsys.realview.uart0.power_state.pwrStateResidencyTicks::UNDEFINED 299043753750                       # Cumulative time (in ticks) in various power states (Tick)
testsys.realview.uart1.power_state.pwrStateResidencyTicks::UNDEFINED 299043753750                       # Cumulative time (in ticks) in various power states (Tick)
testsys.realview.uart2.power_state.pwrStateResidencyTicks::UNDEFINED 299043753750                       # Cumulative time (in ticks) in various power states (Tick)
testsys.realview.uart3.power_state.pwrStateResidencyTicks::UNDEFINED 299043753750                       # Cumulative time (in ticks) in various power states (Tick)
testsys.realview.vgic.power_state.pwrStateResidencyTicks::UNDEFINED 299043753750                       # Cumulative time (in ticks) in various power states (Tick)
testsys.realview.vio0.power_state.pwrStateResidencyTicks::UNDEFINED 299043753750                       # Cumulative time (in ticks) in various power states (Tick)
testsys.realview.vio1.power_state.pwrStateResidencyTicks::UNDEFINED 299043753750                       # Cumulative time (in ticks) in various power states (Tick)
testsys.realview.vram.power_state.pwrStateResidencyTicks::UNDEFINED 299043753750                       # Cumulative time (in ticks) in various power states (Tick)
testsys.realview.watchdog.power_state.pwrStateResidencyTicks::UNDEFINED 299043753750                       # Cumulative time (in ticks) in various power states (Tick)
testsys.voltage_domain.voltage                      1                       # Voltage in Volts (Volt)
testsys.workload.inst.arm                           0                       # number of arm instructions executed (Count)
testsys.workload.inst.quiesce                       4                       # number of quiesce instructions executed (Count)

---------- End Simulation Statistics   ----------
